<?xml version="1.0" encoding="UTF-8"?>
<!-- generated on Fri Aug 17 22:38:56 2018 by SUMO duarouter Version 0.32.0

<?xml version="1.0" encoding="UTF-8"?><configuration
xmlns:xsi="http://www.w3.org/2001/XMLSchema-instance" xsi:noNamespaceSchemaLocation="http://sumo.dlr.de/xsd/duarouterConfiguration.xsd"><input><net-file value="anl427.net.xml"/><additional-files value="anl427.add.xml"/><route-files value="anl427.trips.xml"/></input><output><output-file value="anl427.rou.xml"/><alternatives-output value="anl427.rou.alt.xml"/></output><processing><ignore-errors value="true"/></processing></configuration>
-->
<routes xmlns:xsi="http://www.w3.org/2001/XMLSchema-instance" xsi:noNamespaceSchemaLocation="http://sumo.dlr.de/xsd/routes_file.xsd">
    <route id="r0" edges="-gneE24 gneE31 gneE32 gneE37 gneE38 gneE39 gneE23 gneE41 gneE43 gneE44"/>
    <route id="r1" edges="gneE46 -gneE43 gneE47 gneE40 -gneE39 -gneE38 -gneE37 gneE33 gneE34 gneE35 -gneE42"/>
    <route id="r2" edges="gneE26 gneE27 gneE28 gneE29 gneE30 gneE31 gneE32 gneE25"/>
    <route id="r3" edges="gneE42 gneE14 gneE15 gneE16 gneE37 gneE38 gneE39 gneE23 gneE41 gneE43 gneE44"/>
    <route id="r4" edges="gneE46 -gneE43 gneE47 gneE40 -gneE39 -gneE38 -gneE37 gneE25"/>
    <route id="r5" edges="gneE46 -gneE43 gneE47 gneE40 -gneE39 -gneE38 -gneE37 gneE17 gneE18 gneE19 gneE21 gneE20 -gneE27 -gneE26"/>
    <route id="r6" edges="gneE26 gneE27 gneE28 gneE29 gneE30 gneE31 gneE32 gneE37 gneE38 gneE39 gneE23 gneE41 gneE43 gneE44"/>
    <route id="r7" edges="-gneE25 gneE37 gneE38 gneE39 gneE23 gneE41 gneE43 gneE45"/>
    <route id="r8" edges="gneE49 -gneE43 gneE47 gneE40 -gneE39 -gneE38 -gneE37 gneE17 gneE18 gneE19 gneE21 gneE20 -gneE27 -gneE26"/>
    <route id="r9" edges="-gneE24 gneE31 gneE32 gneE25"/>
    <route id="r10" edges="-gneE24 gneE31 gneE32 gneE33 gneE34 gneE35 -gneE42"/>
    <route id="r11" edges="-gneE25 gneE33 gneE34 gneE35 -gneE42"/>
    <route id="r12" edges="-gneE36 -gneE27 -gneE26"/>
    <route id="r13" edges="gneE49 gneE45"/>
    <route id="r14" edges="gneE46 -gneE43 gneE47 gneE40 -gneE39 -gneE38 -gneE37 gneE17 gneE18 gneE19 gneE21 gneE20 gneE36"/>
    <route id="r15" edges="gneE26 gneE27 gneE36"/>
    <route id="r16" edges="gneE42 gneE14 gneE15 gneE16 gneE17 gneE18 gneE19 gneE21 gneE20 gneE36"/>
    <route id="r17" edges="-gneE36 gneE28 gneE29 gneE30 gneE31 gneE32 gneE25"/>
    <route id="r18" edges="gneE26 gneE27 gneE28 gneE29 gneE30 gneE24"/>
    <route id="r19" edges="gneE49 -gneE43 gneE47 gneE40 -gneE39 -gneE38 -gneE37 gneE17 gneE18 gneE19 gneE21 gneE20 gneE36"/>
    <route id="r20" edges="-gneE36 gneE28 gneE29 gneE30 gneE31 gneE32 gneE33 gneE34 gneE35 -gneE42"/>
    <route id="r21" edges="gneE26 gneE27 gneE28 gneE29 gneE30 gneE31 gneE32 gneE37 gneE38 gneE39 gneE23 gneE41 gneE43 gneE45"/>
    <route id="r22" edges="gneE49 -gneE43 gneE47 gneE40 -gneE39 -gneE38 -gneE37 gneE33 gneE34 gneE35 -gneE42"/>
    <route id="r23" edges="gneE42 gneE14 gneE15 gneE16 gneE25"/>
    <route id="r24" edges="gneE46 gneE44"/>
    <route id="r25" edges="-gneE24 gneE31 gneE32 gneE37 gneE38 gneE39 gneE23 gneE41 gneE43 gneE45"/>
    <route id="r26" edges="gneE26 gneE27 gneE28 gneE29 gneE30 gneE31 gneE32 gneE33 gneE34 gneE35 -gneE42"/>
    <route id="r27" edges="-gneE36 gneE28 gneE29 gneE30 gneE24"/>
    <route id="r28" edges="-gneE25 gneE17 gneE18 gneE19 gneE21 gneE20 gneE36"/>
    <route id="r29" edges="-gneE25 gneE37 gneE38 gneE39 gneE23 gneE41 gneE43 gneE44"/>
    <route id="r30" edges="gneE42 gneE14 gneE15 gneE16 gneE17 gneE18 gneE19 gneE21 gneE20 -gneE27 -gneE26"/>
    <route id="r31" edges="-gneE36 gneE28 gneE29 gneE30 gneE31 gneE32 gneE37 gneE38 gneE39 gneE23 gneE41 gneE43 gneE45"/>
    <route id="r32" edges="-gneE25 gneE17 gneE18 gneE19 gneE21 gneE20 -gneE27 -gneE26"/>

<vehicle id="0" route="r30" depart="100"/>
<vehicle id="1" route="r26" depart="193"/>
<vehicle id="2" route="r30" depart="201"/>
<vehicle id="3" route="r30" depart="302"/>
<vehicle id="4" route="r31" depart="315"/>
<vehicle id="5" route="r10" depart="360"/>
<vehicle id="6" route="r26" depart="387"/>
<vehicle id="7" route="r30" depart="403"/>
<vehicle id="8" route="r30" depart="504"/>
<vehicle id="9" route="r26" depart="581"/>
<vehicle id="10" route="r30" depart="605"/>
<vehicle id="11" route="r31" depart="631"/>
<vehicle id="12" route="r16" depart="706"/>
<vehicle id="13" route="r10" depart="721"/>
<vehicle id="14" route="r20" depart="775"/>
<vehicle id="15" route="r30" depart="807"/>
<vehicle id="16" route="r30" depart="908"/>
<vehicle id="17" route="r31" depart="947"/>
<vehicle id="18" route="r20" depart="969"/>
<vehicle id="19" route="r16" depart="1009"/>
<vehicle id="20" route="r10" depart="1082"/>
<vehicle id="21" route="r16" depart="1110"/>
<vehicle id="22" route="r26" depart="1163"/>
<vehicle id="23" route="r30" depart="1211"/>
<vehicle id="24" route="r31" depart="1263"/>
<vehicle id="25" route="r30" depart="1312"/>
<vehicle id="26" route="r26" depart="1357"/>
<vehicle id="27" route="r16" depart="1413"/>
<vehicle id="28" route="r10" depart="1443"/>
<vehicle id="29" route="r30" depart="1514"/>
<vehicle id="30" route="r26" depart="1551"/>
<vehicle id="31" route="r31" depart="1579"/>
<vehicle id="32" route="r16" depart="1615"/>
<vehicle id="33" route="r30" depart="1716"/>
<vehicle id="34" route="r26" depart="1745"/>
<vehicle id="35" route="r10" depart="1804"/>
<vehicle id="36" route="r16" depart="1817"/>
<vehicle id="37" route="r31" depart="1895"/>
<vehicle id="38" route="r30" depart="1918"/>
<vehicle id="39" route="r20" depart="1939"/>
<vehicle id="40" route="r30" depart="2019"/>
<vehicle id="41" route="r16" depart="2120"/>
<vehicle id="42" route="r26" depart="2133"/>
<vehicle id="43" route="r10" depart="2165"/>
<vehicle id="44" route="r31" depart="2211"/>
<vehicle id="45" route="r16" depart="2221"/>
<vehicle id="46" route="r16" depart="2322"/>
<vehicle id="47" route="r26" depart="2327"/>
<vehicle id="48" route="r30" depart="2423"/>
<vehicle id="49" route="r0" depart="2520"/>
<vehicle id="50" route="r23" depart="2520"/>
<vehicle id="51" route="r11" depart="2520"/>
<vehicle id="52" route="r4" depart="2520"/>
<vehicle id="53" route="r32" depart="2520"/>
<vehicle id="54" route="r20" depart="2521"/>
<vehicle id="55" route="r16" depart="2524"/>
<vehicle id="56" route="r10" depart="2526"/>
<vehicle id="57" route="r31" depart="2527"/>
<vehicle id="58" route="r30" depart="2625"/>
<vehicle id="59" route="r26" depart="2715"/>
<vehicle id="60" route="r16" depart="2726"/>
<vehicle id="61" route="r30" depart="2827"/>
<vehicle id="62" route="r31" depart="2843"/>
<vehicle id="63" route="r10" depart="2887"/>
<vehicle id="64" route="r26" depart="2909"/>
<vehicle id="65" route="r30" depart="2928"/>
<vehicle id="66" route="r16" depart="3029"/>
<vehicle id="67" route="r26" depart="3103"/>
<vehicle id="68" route="r30" depart="3130"/>
<vehicle id="69" route="r31" depart="3159"/>
<vehicle id="70" route="r16" depart="3231"/>
<vehicle id="71" route="r10" depart="3248"/>
<vehicle id="72" route="r20" depart="3297"/>
<vehicle id="73" route="r30" depart="3332"/>
<vehicle id="74" route="r16" depart="3433"/>
<vehicle id="75" route="r31" depart="3475"/>
<vehicle id="76" route="r20" depart="3491"/>
<vehicle id="77" route="r16" depart="3534"/>
<vehicle id="78" route="r30" depart="3793"/>
<vehicle id="79" route="r26" depart="3810"/>
<vehicle id="80" route="r16" depart="3987"/>
<vehicle id="81" route="r26" depart="4021"/>
<vehicle id="82" route="r16" depart="4181"/>
<vehicle id="83" route="r26" depart="4232"/>
<vehicle id="84" route="r16" depart="4375"/>
<vehicle id="85" route="r31" depart="4440"/>
<vehicle id="86" route="r26" depart="4443"/>
<vehicle id="87" route="r30" depart="4569"/>
<vehicle id="88" route="r26" depart="4654"/>
<vehicle id="89" route="r16" depart="4763"/>
<vehicle id="90" route="r21" depart="4860"/>
<vehicle id="91" route="r20" depart="4865"/>
<vehicle id="92" route="r16" depart="4957"/>
<vehicle id="93" route="r26" depart="5076"/>
<vehicle id="94" route="r16" depart="5151"/>
<vehicle id="95" route="r31" depart="5281"/>
<vehicle id="96" route="r20" depart="5287"/>
<vehicle id="97" route="r30" depart="5345"/>
<vehicle id="98" route="r20" depart="5498"/>
<vehicle id="99" route="r30" depart="5539"/>
<vehicle id="100" route="r20" depart="5709"/>
<vehicle id="101" route="r16" depart="5733"/>
<vehicle id="102" route="r26" depart="5920"/>
<vehicle id="103" route="r16" depart="5927"/>
<vehicle id="104" route="r9" depart="6120"/>
<vehicle id="105" route="r5" depart="6120"/>
<vehicle id="106" route="r30" depart="6121"/>
<vehicle id="107" route="r21" depart="6121"/>
<vehicle id="108" route="r31" depart="6122"/>
<vehicle id="109" route="r26" depart="6131"/>
<vehicle id="110" route="r16" depart="6315"/>
<vehicle id="111" route="r26" depart="6342"/>
<vehicle id="112" route="r30" depart="6509"/>
<vehicle id="113" route="r26" depart="6553"/>
<vehicle id="114" route="r16" depart="6703"/>
<vehicle id="115" route="r26" depart="6764"/>
<vehicle id="116" route="r16" depart="6897"/>
<vehicle id="117" route="r31" depart="6963"/>
<vehicle id="118" route="r20" depart="6975"/>
<vehicle id="119" route="r16" depart="7091"/>
<vehicle id="120" route="r20" depart="7186"/>
<vehicle id="121" route="r16" depart="7357"/>
<vehicle id="122" route="r20" depart="7480"/>
<vehicle id="123" route="r30" depart="7515"/>
<vehicle id="124" route="r16" depart="7673"/>
<vehicle id="125" route="r26" depart="7761"/>
<vehicle id="126" route="r30" depart="7831"/>
<vehicle id="127" route="r30" depart="7989"/>
<vehicle id="128" route="r20" depart="8042"/>
<vehicle id="129" route="r30" depart="8147"/>
<vehicle id="130" route="r16" depart="8305"/>
<vehicle id="131" route="r20" depart="8323"/>
<vehicle id="132" route="r6" depart="8460"/>
<vehicle id="133" route="r16" depart="8463"/>
<vehicle id="134" route="r20" depart="8604"/>
<vehicle id="135" route="r16" depart="8621"/>
<vehicle id="136" route="r16" depart="8779"/>
<vehicle id="137" route="r20" depart="8885"/>
<vehicle id="138" route="r30" depart="8937"/>
<vehicle id="139" route="r30" depart="9095"/>
<vehicle id="140" route="r26" depart="9166"/>
<vehicle id="141" route="r16" depart="9253"/>
<vehicle id="142" route="r16" depart="9411"/>
<vehicle id="143" route="r26" depart="9447"/>
<vehicle id="144" route="r30" depart="9569"/>
<vehicle id="145" route="r31" depart="9720"/>
<vehicle id="146" route="r9" depart="9720"/>
<vehicle id="147" route="r0" depart="9720"/>
<vehicle id="148" route="r4" depart="9720"/>
<vehicle id="149" route="r6" depart="9721"/>
<vehicle id="150" route="r30" depart="9727"/>
<vehicle id="151" route="r26" depart="9728"/>
<vehicle id="152" route="r16" depart="9885"/>
<vehicle id="153" route="r26" depart="10009"/>
<vehicle id="154" route="r30" depart="10043"/>
<vehicle id="155" route="r30" depart="10201"/>
<vehicle id="156" route="r20" depart="10290"/>
<vehicle id="157" route="r16" depart="10359"/>
<vehicle id="158" route="r30" depart="10517"/>
<vehicle id="159" route="r20" depart="10571"/>
<vehicle id="160" route="r16" depart="10675"/>
<vehicle id="161" route="r16" depart="10948"/>
<vehicle id="162" route="r26" depart="11052"/>
<vehicle id="163" route="r16" depart="11097"/>
<vehicle id="164" route="r30" depart="11246"/>
<vehicle id="165" route="r31" depart="11304"/>
<vehicle id="166" route="r20" depart="11305"/>
<vehicle id="167" route="r30" depart="11395"/>
<vehicle id="168" route="r10" depart="11430"/>
<vehicle id="169" route="r30" depart="11544"/>
<vehicle id="170" route="r20" depart="11558"/>
<vehicle id="171" route="r16" depart="11693"/>
<vehicle id="172" route="r31" depart="11809"/>
<vehicle id="173" route="r20" depart="11811"/>
<vehicle id="174" route="r30" depart="11842"/>
<vehicle id="175" route="r16" depart="11991"/>
<vehicle id="176" route="r19" depart="12060"/>
<vehicle id="177" route="r10" depart="12061"/>
<vehicle id="178" route="r26" depart="12064"/>
<vehicle id="179" route="r16" depart="12140"/>
<vehicle id="180" route="r30" depart="12289"/>
<vehicle id="181" route="r31" depart="12314"/>
<vehicle id="182" route="r26" depart="12317"/>
<vehicle id="183" route="r30" depart="12438"/>
<vehicle id="184" route="r26" depart="12570"/>
<vehicle id="185" route="r30" depart="12587"/>
<vehicle id="186" route="r10" depart="12692"/>
<vehicle id="187" route="r30" depart="12736"/>
<vehicle id="188" route="r31" depart="12819"/>
<vehicle id="189" route="r26" depart="12823"/>
<vehicle id="190" route="r30" depart="12885"/>
<vehicle id="191" route="r16" depart="13034"/>
<vehicle id="192" route="r20" depart="13076"/>
<vehicle id="193" route="r30" depart="13183"/>
<vehicle id="194" route="r0" depart="13320"/>
<vehicle id="195" route="r9" depart="13320"/>
<vehicle id="196" route="r14" depart="13321"/>
<vehicle id="197" route="r10" depart="13323"/>
<vehicle id="198" route="r31" depart="13324"/>
<vehicle id="199" route="r26" depart="13329"/>
<vehicle id="200" route="r16" depart="13332"/>
<vehicle id="201" route="r16" depart="13481"/>
<vehicle id="202" route="r20" depart="13582"/>
<vehicle id="203" route="r30" depart="13630"/>
<vehicle id="204" route="r16" depart="13779"/>
<vehicle id="205" route="r31" depart="13829"/>
<vehicle id="206" route="r20" depart="13835"/>
<vehicle id="207" route="r16" depart="13928"/>
<vehicle id="208" route="r10" depart="13954"/>
<vehicle id="209" route="r30" depart="14077"/>
<vehicle id="210" route="r20" depart="14088"/>
<vehicle id="211" route="r16" depart="14226"/>
<vehicle id="212" route="r31" depart="14334"/>
<vehicle id="213" route="r26" depart="14341"/>
<vehicle id="214" route="r16" depart="14375"/>
<vehicle id="215" route="r26" depart="14493"/>
<vehicle id="216" route="r16" depart="14540"/>
<vehicle id="217" route="r20" depart="14587"/>
<vehicle id="218" route="r31" depart="14680"/>
<vehicle id="219" route="r20" depart="14681"/>
<vehicle id="220" route="r16" depart="14681"/>
<vehicle id="221" route="r20" depart="14775"/>
<vehicle id="222" route="r10" depart="14820"/>
<vehicle id="223" route="r30" depart="14822"/>
<vehicle id="224" route="r20" depart="14869"/>
<vehicle id="225" route="r31" depart="14961"/>
<vehicle id="226" route="r26" depart="14963"/>
<vehicle id="227" route="r16" depart="14963"/>
<vehicle id="228" route="r26" depart="15057"/>
<vehicle id="229" route="r30" depart="15104"/>
<vehicle id="230" route="r26" depart="15151"/>
<vehicle id="231" route="r22" depart="15240"/>
<vehicle id="232" route="r10" depart="15241"/>
<vehicle id="233" route="r31" depart="15242"/>
<vehicle id="234" route="r20" depart="15245"/>
<vehicle id="235" route="r30" depart="15245"/>
<vehicle id="236" route="r20" depart="15339"/>
<vehicle id="237" route="r30" depart="15386"/>
<vehicle id="238" route="r20" depart="15433"/>
<vehicle id="239" route="r31" depart="15523"/>
<vehicle id="240" route="r26" depart="15527"/>
<vehicle id="241" route="r30" depart="15527"/>
<vehicle id="242" route="r20" depart="15621"/>
<vehicle id="243" route="r10" depart="15662"/>
<vehicle id="244" route="r30" depart="15668"/>
<vehicle id="245" route="r20" depart="15715"/>
<vehicle id="246" route="r31" depart="15804"/>
<vehicle id="247" route="r20" depart="15809"/>
<vehicle id="248" route="r16" depart="15809"/>
<vehicle id="249" route="r26" depart="15903"/>
<vehicle id="250" route="r30" depart="15950"/>
<vehicle id="251" route="r26" depart="15997"/>
<vehicle id="252" route="r1" depart="16081"/>
<vehicle id="253" route="r10" depart="16083"/>
<vehicle id="254" route="r31" depart="16085"/>
<vehicle id="255" route="r26" depart="16091"/>
<vehicle id="256" route="r30" depart="16091"/>
<vehicle id="257" route="r26" depart="16185"/>
<vehicle id="258" route="r30" depart="16232"/>
<vehicle id="259" route="r20" depart="16279"/>
<vehicle id="260" route="r31" depart="16366"/>
<vehicle id="261" route="r26" depart="16373"/>
<vehicle id="262" route="r30" depart="16373"/>
<vehicle id="263" route="r20" depart="16467"/>
<vehicle id="264" route="r10" depart="16504"/>
<vehicle id="265" route="r16" depart="16514"/>
<vehicle id="266" route="r26" depart="16561"/>
<vehicle id="267" route="r31" depart="16647"/>
<vehicle id="268" route="r26" depart="16655"/>
<vehicle id="269" route="r30" depart="16655"/>
<vehicle id="270" route="r20" depart="16749"/>
<vehicle id="271" route="r30" depart="16796"/>
<vehicle id="272" route="r26" depart="16843"/>
<vehicle id="273" route="r23" depart="16920"/>
<vehicle id="274" route="r11" depart="16920"/>
<vehicle id="275" route="r1" depart="16922"/>
<vehicle id="276" route="r10" depart="16925"/>
<vehicle id="277" route="r31" depart="16928"/>
<vehicle id="278" route="r20" depart="16937"/>
<vehicle id="279" route="r30" depart="16937"/>
<vehicle id="280" route="r26" depart="17031"/>
<vehicle id="281" route="r30" depart="17078"/>
<vehicle id="282" route="r26" depart="17125"/>
<vehicle id="283" route="r31" depart="17209"/>
<vehicle id="284" route="r20" depart="17219"/>
<vehicle id="285" route="r16" depart="17219"/>
<vehicle id="286" route="r26" depart="17313"/>
<vehicle id="287" route="r10" depart="17346"/>
<vehicle id="288" route="r16" depart="17360"/>
<vehicle id="289" route="r26" depart="17407"/>
<vehicle id="290" route="r31" depart="17490"/>
<vehicle id="291" route="r20" depart="17501"/>
<vehicle id="292" route="r30" depart="17501"/>
<vehicle id="293" route="r20" depart="17595"/>
<vehicle id="294" route="r30" depart="17642"/>
<vehicle id="295" route="r26" depart="17689"/>
<vehicle id="296" route="r22" depart="17763"/>
<vehicle id="297" route="r10" depart="17767"/>
<vehicle id="298" route="r31" depart="17771"/>
<vehicle id="299" route="r26" depart="17783"/>
<vehicle id="300" route="r30" depart="17783"/>
<vehicle id="301" route="r20" depart="17877"/>
<vehicle id="302" route="r30" depart="17924"/>
<vehicle id="303" route="r26" depart="17971"/>
<vehicle id="304" route="r30" depart="18032"/>
<vehicle id="305" route="r26" depart="18035"/>
<vehicle id="306" route="r16" depart="18065"/>
<vehicle id="307" route="r20" depart="18071"/>
<vehicle id="308" route="r31" depart="18084"/>
<vehicle id="309" route="r30" depart="18098"/>
<vehicle id="310" route="r26" depart="18107"/>
<vehicle id="311" route="r10" depart="18114"/>
<vehicle id="312" route="r16" depart="18131"/>
<vehicle id="313" route="r20" depart="18143"/>
<vehicle id="314" route="r30" depart="18164"/>
<vehicle id="315" route="r31" depart="18169"/>
<vehicle id="316" route="r20" depart="18179"/>
<vehicle id="317" route="r30" depart="18197"/>
<vehicle id="318" route="r26" depart="18215"/>
<vehicle id="319" route="r10" depart="18229"/>
<vehicle id="320" route="r30" depart="18230"/>
<vehicle id="321" route="r26" depart="18251"/>
<vehicle id="322" route="r31" depart="18254"/>
<vehicle id="323" route="r30" depart="18263"/>
<vehicle id="324" route="r26" depart="18287"/>
<vehicle id="325" route="r16" depart="18296"/>
<vehicle id="326" route="r20" depart="18323"/>
<vehicle id="327" route="r30" depart="18329"/>
<vehicle id="328" route="r31" depart="18339"/>
<vehicle id="329" route="r10" depart="18344"/>
<vehicle id="330" route="r26" depart="18359"/>
<vehicle id="331" route="r30" depart="18362"/>
<vehicle id="332" route="r26" depart="18395"/>
<vehicle id="333" route="r30" depart="18395"/>
<vehicle id="334" route="r31" depart="18424"/>
<vehicle id="335" route="r16" depart="18428"/>
<vehicle id="336" route="r26" depart="18431"/>
<vehicle id="337" route="r10" depart="18459"/>
<vehicle id="338" route="r16" depart="18461"/>
<vehicle id="339" route="r20" depart="18467"/>
<vehicle id="340" route="r16" depart="18494"/>
<vehicle id="341" route="r20" depart="18503"/>
<vehicle id="342" route="r31" depart="18509"/>
<vehicle id="343" route="r16" depart="18527"/>
<vehicle id="344" route="r20" depart="18539"/>
<vehicle id="345" route="r16" depart="18560"/>
<vehicle id="346" route="r10" depart="18574"/>
<vehicle id="347" route="r26" depart="18575"/>
<vehicle id="348" route="r30" depart="18593"/>
<vehicle id="349" route="r31" depart="18594"/>
<vehicle id="350" route="r20" depart="18611"/>
<vehicle id="351" route="r16" depart="18626"/>
<vehicle id="352" route="r1" depart="18630"/>
<vehicle id="353" route="r5" depart="18630"/>
<vehicle id="354" route="r28" depart="18630"/>
<vehicle id="355" route="r26" depart="18647"/>
<vehicle id="356" route="r16" depart="18659"/>
<vehicle id="357" route="r31" depart="18679"/>
<vehicle id="358" route="r26" depart="18683"/>
<vehicle id="359" route="r10" depart="18689"/>
<vehicle id="360" route="r30" depart="18692"/>
<vehicle id="361" route="r20" depart="18719"/>
<vehicle id="362" route="r16" depart="18725"/>
<vehicle id="363" route="r26" depart="18755"/>
<vehicle id="364" route="r16" depart="18758"/>
<vehicle id="365" route="r31" depart="18764"/>
<vehicle id="366" route="r20" depart="18791"/>
<vehicle id="367" route="r30" depart="18791"/>
<vehicle id="368" route="r10" depart="18804"/>
<vehicle id="369" route="r30" depart="18824"/>
<vehicle id="370" route="r20" depart="18827"/>
<vehicle id="371" route="r9" depart="18840"/>
<vehicle id="372" route="r31" depart="18849"/>
<vehicle id="373" route="r16" depart="18857"/>
<vehicle id="374" route="r26" depart="18863"/>
<vehicle id="375" route="r16" depart="18890"/>
<vehicle id="376" route="r26" depart="18899"/>
<vehicle id="377" route="r10" depart="18919"/>
<vehicle id="378" route="r30" depart="18923"/>
<vehicle id="379" route="r31" depart="18934"/>
<vehicle id="380" route="r26" depart="18935"/>
<vehicle id="381" route="r30" depart="18956"/>
<vehicle id="382" route="r26" depart="18971"/>
<vehicle id="383" route="r30" depart="18989"/>
<vehicle id="384" route="r26" depart="19007"/>
<vehicle id="385" route="r31" depart="19019"/>
<vehicle id="386" route="r16" depart="19022"/>
<vehicle id="387" route="r10" depart="19034"/>
<vehicle id="388" route="r26" depart="19043"/>
<vehicle id="389" route="r16" depart="19055"/>
<vehicle id="390" route="r20" depart="19079"/>
<vehicle id="391" route="r16" depart="19088"/>
<vehicle id="392" route="r31" depart="19104"/>
<vehicle id="393" route="r20" depart="19115"/>
<vehicle id="394" route="r16" depart="19121"/>
<vehicle id="395" route="r10" depart="19149"/>
<vehicle id="396" route="r26" depart="19151"/>
<vehicle id="397" route="r30" depart="19154"/>
<vehicle id="398" route="r20" depart="19187"/>
<vehicle id="399" route="r16" depart="19187"/>
<vehicle id="400" route="r31" depart="19189"/>
<vehicle id="401" route="r16" depart="19220"/>
<vehicle id="402" route="r26" depart="19223"/>
<vehicle id="403" route="r30" depart="19253"/>
<vehicle id="404" route="r26" depart="19259"/>
<vehicle id="405" route="r23" depart="19260"/>
<vehicle id="406" route="r22" depart="19261"/>
<vehicle id="407" route="r5" depart="19261"/>
<vehicle id="408" route="r28" depart="19261"/>
<vehicle id="409" route="r10" depart="19264"/>
<vehicle id="410" route="r31" depart="19274"/>
<vehicle id="411" route="r16" depart="19286"/>
<vehicle id="412" route="r26" depart="19295"/>
<vehicle id="413" route="r16" depart="19319"/>
<vehicle id="414" route="r26" depart="19331"/>
<vehicle id="415" route="r16" depart="19352"/>
<vehicle id="416" route="r31" depart="19359"/>
<vehicle id="417" route="r26" depart="19367"/>
<vehicle id="418" route="r10" depart="19379"/>
<vehicle id="419" route="r16" depart="19385"/>
<vehicle id="420" route="r26" depart="19403"/>
<vehicle id="421" route="r16" depart="19418"/>
<vehicle id="422" route="r26" depart="19439"/>
<vehicle id="423" route="r31" depart="19444"/>
<vehicle id="424" route="r30" depart="19451"/>
<vehicle id="425" route="r20" depart="19475"/>
<vehicle id="426" route="r16" depart="19484"/>
<vehicle id="427" route="r10" depart="19494"/>
<vehicle id="428" route="r26" depart="19511"/>
<vehicle id="429" route="r30" depart="19517"/>
<vehicle id="430" route="r31" depart="19529"/>
<vehicle id="431" route="r26" depart="19547"/>
<vehicle id="432" route="r30" depart="19550"/>
<vehicle id="433" route="r20" depart="19583"/>
<vehicle id="434" route="r30" depart="19583"/>
<vehicle id="435" route="r10" depart="19609"/>
<vehicle id="436" route="r31" depart="19614"/>
<vehicle id="437" route="r30" depart="19616"/>
<vehicle id="438" route="r26" depart="19619"/>
<vehicle id="439" route="r16" depart="19649"/>
<vehicle id="440" route="r26" depart="19655"/>
<vehicle id="441" route="r9" depart="19681"/>
<vehicle id="442" route="r30" depart="19682"/>
<vehicle id="443" route="r26" depart="19691"/>
<vehicle id="444" route="r31" depart="19699"/>
<vehicle id="445" route="r16" depart="19715"/>
<vehicle id="446" route="r10" depart="19724"/>
<vehicle id="447" route="r26" depart="19727"/>
<vehicle id="448" route="r16" depart="19748"/>
<vehicle id="449" route="r26" depart="19763"/>
<vehicle id="450" route="r30" depart="19781"/>
<vehicle id="451" route="r31" depart="19784"/>
<vehicle id="452" route="r20" depart="19799"/>
<vehicle id="453" route="r16" depart="19814"/>
<vehicle id="454" route="r20" depart="19835"/>
<vehicle id="455" route="r10" depart="19839"/>
<vehicle id="456" route="r16" depart="19847"/>
<vehicle id="457" route="r31" depart="19869"/>
<vehicle id="458" route="r20" depart="19871"/>
<vehicle id="459" route="r30" depart="19880"/>
<vehicle id="460" route="r22" depart="19892"/>
<vehicle id="461" route="r8" depart="19892"/>
<vehicle id="462" route="r28" depart="19892"/>
<vehicle id="463" route="r26" depart="19907"/>
<vehicle id="464" route="r16" depart="19913"/>
<vehicle id="465" route="r20" depart="19943"/>
<vehicle id="466" route="r30" depart="19946"/>
<vehicle id="467" route="r31" depart="19954"/>
<vehicle id="468" route="r10" depart="19954"/>
<vehicle id="469" route="r26" depart="19979"/>
<vehicle id="470" route="r30" depart="19979"/>
<vehicle id="471" route="r30" depart="20012"/>
<vehicle id="472" route="r20" depart="20015"/>
<vehicle id="473" route="r31" depart="20039"/>
<vehicle id="474" route="r16" depart="20045"/>
<vehicle id="475" route="r26" depart="20051"/>
<vehicle id="476" route="r10" depart="20069"/>
<vehicle id="477" route="r16" depart="20078"/>
<vehicle id="478" route="r20" depart="20087"/>
<vehicle id="479" route="r16" depart="20111"/>
<vehicle id="480" route="r20" depart="20123"/>
<vehicle id="481" route="r31" depart="20124"/>
<vehicle id="482" route="r30" depart="20144"/>
<vehicle id="483" route="r26" depart="20159"/>
<vehicle id="484" route="r30" depart="20177"/>
<vehicle id="485" route="r10" depart="20184"/>
<vehicle id="486" route="r20" depart="20195"/>
<vehicle id="487" route="r31" depart="20209"/>
<vehicle id="488" route="r30" depart="20210"/>
<vehicle id="489" route="r26" depart="20231"/>
<vehicle id="490" route="r16" depart="20243"/>
<vehicle id="491" route="r26" depart="20267"/>
<vehicle id="492" route="r16" depart="20276"/>
<vehicle id="493" route="r31" depart="20294"/>
<vehicle id="494" route="r10" depart="20299"/>
<vehicle id="495" route="r26" depart="20303"/>
<vehicle id="496" route="r30" depart="20309"/>
<vehicle id="497" route="r26" depart="20339"/>
<vehicle id="498" route="r30" depart="20342"/>
<vehicle id="499" route="r20" depart="20375"/>
<vehicle id="500" route="r16" depart="20375"/>
<vehicle id="501" route="r31" depart="20379"/>
<vehicle id="502" route="r30" depart="20408"/>
<vehicle id="503" route="r26" depart="20411"/>
<vehicle id="504" route="r10" depart="20414"/>
<vehicle id="505" route="r16" depart="20441"/>
<vehicle id="506" route="r26" depart="20447"/>
<vehicle id="507" route="r31" depart="20464"/>
<vehicle id="508" route="r30" depart="20474"/>
<vehicle id="509" route="r26" depart="20483"/>
<vehicle id="510" route="r16" depart="20507"/>
<vehicle id="511" route="r26" depart="20519"/>
<vehicle id="512" route="r21" depart="20520"/>
<vehicle id="513" route="r4" depart="20520"/>
<vehicle id="514" route="r23" depart="20521"/>
<vehicle id="515" route="r9" depart="20522"/>
<vehicle id="516" route="r1" depart="20523"/>
<vehicle id="517" route="r8" depart="20523"/>
<vehicle id="518" route="r28" depart="20523"/>
<vehicle id="519" route="r10" depart="20529"/>
<vehicle id="520" route="r16" depart="20540"/>
<vehicle id="521" route="r31" depart="20549"/>
<vehicle id="522" route="r20" depart="20555"/>
<vehicle id="523" route="r16" depart="20573"/>
<vehicle id="524" route="r26" depart="20591"/>
<vehicle id="525" route="r16" depart="20606"/>
<vehicle id="526" route="r26" depart="20627"/>
<vehicle id="527" route="r31" depart="20634"/>
<vehicle id="528" route="r16" depart="20639"/>
<vehicle id="529" route="r10" depart="20644"/>
<vehicle id="530" route="r20" depart="20663"/>
<vehicle id="531" route="r16" depart="20672"/>
<vehicle id="532" route="r20" depart="20699"/>
<vehicle id="533" route="r16" depart="20705"/>
<vehicle id="534" route="r31" depart="20719"/>
<vehicle id="535" route="r20" depart="20735"/>
<vehicle id="536" route="r30" depart="20738"/>
<vehicle id="537" route="r10" depart="20759"/>
<vehicle id="538" route="r26" depart="20771"/>
<vehicle id="539" route="r16" depart="20771"/>
<vehicle id="540" route="r31" depart="20804"/>
<vehicle id="541" route="r16" depart="20804"/>
<vehicle id="542" route="r20" depart="20807"/>
<vehicle id="543" route="r30" depart="20837"/>
<vehicle id="544" route="r20" depart="20843"/>
<vehicle id="545" route="r30" depart="20870"/>
<vehicle id="546" route="r10" depart="20874"/>
<vehicle id="547" route="r26" depart="20879"/>
<vehicle id="548" route="r31" depart="20889"/>
<vehicle id="549" route="r30" depart="20903"/>
<vehicle id="550" route="r26" depart="20915"/>
<vehicle id="551" route="r30" depart="20936"/>
<vehicle id="552" route="r26" depart="20951"/>
<vehicle id="553" route="r16" depart="20969"/>
<vehicle id="554" route="r31" depart="20974"/>
<vehicle id="555" route="r26" depart="20987"/>
<vehicle id="556" route="r10" depart="20989"/>
<vehicle id="557" route="r30" depart="21002"/>
<vehicle id="558" route="r26" depart="21023"/>
<vehicle id="559" route="r30" depart="21035"/>
<vehicle id="560" route="r20" depart="21059"/>
<vehicle id="561" route="r31" depart="21059"/>
<vehicle id="562" route="r30" depart="21068"/>
<vehicle id="563" route="r20" depart="21095"/>