<?xml version="1.0" encoding="UTF-8"?>
<!-- generated on 2018-08-17 22:24:24.339151 by $Id$
  options: -n anl427.net.xml -b 0 -e 100 <doubleminus>fringe-factor=1000 -v <doubleminus>min-distance=30 <doubleminus>seed=1
-->
<routes xmlns:xsi="http://www.w3.org/2001/XMLSchema-instance" xsi:noNamespaceSchemaLocation="http://sumo.dlr.de/xsd/routes_file.xsd">
    <trip id="0" depart="0.00" from="-gneE24" to="gneE44"/>
    <trip id="1" depart="0.00" from="gneE46" to="-gneE42"/>
    <trip id="2" depart="0.00" from="gneE26" to="gneE25"/>
    <trip id="3" depart="0.00" from="gneE42" to="gneE44"/>
    <trip id="4" depart="0.00" from="-gneE24" to="-gneE26"/>
    <trip id="5" depart="0.00" from="gneE46" to="gneE25"/>
    <trip id="6" depart="0.00" from="gneE46" to="-gneE26"/>
    <trip id="7" depart="0.00" from="gneE26" to="gneE44"/>
    <trip id="8" depart="0.00" from="-gneE25" to="gneE45"/>
    <trip id="9" depart="0.00" from="gneE49" to="-gneE26"/>
    <trip id="10" depart="0.00" from="-gneE24" to="gneE25"/>
    <trip id="11" depart="0.00" from="gneE49" to="gneE24"/>
    <trip id="12" depart="0.00" from="-gneE25" to="gneE24"/>
    <trip id="13" depart="0.00" from="-gneE24" to="-gneE42"/>
    <trip id="14" depart="0.00" from="-gneE25" to="-gneE42"/>
    <trip id="15" depart="0.00" from="-gneE36" to="-gneE26"/>
    <trip id="16" depart="0.00" from="gneE49" to="gneE45"/>
    <trip id="17" depart="0.00" from="gneE46" to="gneE36"/>
    <trip id="18" depart="0.00" from="gneE26" to="gneE36"/>
    <trip id="19" depart="0.00" from="gneE46" to="gneE24"/>
    <trip id="20" depart="0.00" from="gneE42" to="gneE36"/>
    <trip id="21" depart="0.00" from="-gneE36" to="gneE25"/>
    <trip id="22" depart="0.00" from="gneE26" to="gneE24"/>
    <trip id="23" depart="0.00" from="-gneE24" to="gneE36"/>
    <trip id="24" depart="0.00" from="gneE49" to="gneE36"/>
    <trip id="25" depart="0.00" from="-gneE36" to="-gneE42"/>
    <trip id="26" depart="0.00" from="gneE26" to="gneE45"/>
    <trip id="27" depart="0.00" from="gneE49" to="-gneE42"/>
    <trip id="28" depart="0.00" from="gneE42" to="gneE25"/>
    <trip id="29" depart="0.00" from="gneE46" to="gneE44"/>
    <trip id="30" depart="0.00" from="-gneE24" to="gneE45"/>
    <trip id="31" depart="0.00" from="gneE26" to="-gneE42"/>
    <trip id="32" depart="0.00" from="-gneE36" to="gneE24"/>
    <trip id="33" depart="0.00" from="-gneE25" to="gneE36"/>
    <trip id="34" depart="0.00" from="-gneE25" to="gneE44"/>
    <trip id="35" depart="0.00" from="gneE42" to="-gneE26"/>
    <trip id="36" depart="0.00" from="-gneE36" to="gneE45"/>
    <trip id="37" depart="0.00" from="-gneE25" to="-gneE26"/>
</routes>
