<?xml version="1.0" encoding="UTF-8"?>
<!-- generated on Fri Aug 17 22:38:56 2018 by SUMO duarouter Version 0.32.0

<?xml version="1.0" encoding="UTF-8"?><configuration
xmlns:xsi="http://www.w3.org/2001/XMLSchema-instance" xsi:noNamespaceSchemaLocation="http://sumo.dlr.de/xsd/duarouterConfiguration.xsd"><input><net-file value="anl427.net.xml"/><additional-files value="anl427.add.xml"/><route-files value="anl427.trips.xml"/></input><output><output-file value="anl427.rou.xml"/><alternatives-output value="anl427.rou.alt.xml"/></output><processing><ignore-errors value="true"/></processing></configuration>
-->
<routes xmlns:xsi="http://www.w3.org/2001/XMLSchema-instance" xsi:noNamespaceSchemaLocation="http://sumo.dlr.de/xsd/routes_file.xsd">
    <route id="r0" edges="-gneE24 gneE31 gneE32 gneE37 gneE38 gneE39 gneE23 gneE41 gneE43 gneE44"/>
    <route id="r1" edges="gneE46 -gneE43 gneE47 gneE40 -gneE39 -gneE38 -gneE37 gneE33 gneE34 gneE35 -gneE42"/>
    <route id="r2" edges="gneE26 gneE27 gneE28 gneE29 gneE30 gneE31 gneE32 gneE25"/>
    <route id="r3" edges="gneE42 gneE14 gneE15 gneE16 gneE37 gneE38 gneE39 gneE23 gneE41 gneE43 gneE44"/>
    <route id="r4" edges="gneE46 -gneE43 gneE47 gneE40 -gneE39 -gneE38 -gneE37 gneE25"/>
    <route id="r5" edges="gneE46 -gneE43 gneE47 gneE40 -gneE39 -gneE38 -gneE37 gneE17 gneE18 gneE19 gneE21 gneE20 -gneE27 -gneE26"/>
    <route id="r6" edges="gneE26 gneE27 gneE28 gneE29 gneE30 gneE31 gneE32 gneE37 gneE38 gneE39 gneE23 gneE41 gneE43 gneE44"/>
    <route id="r7" edges="-gneE25 gneE37 gneE38 gneE39 gneE23 gneE41 gneE43 gneE45"/>
    <route id="r8" edges="gneE49 -gneE43 gneE47 gneE40 -gneE39 -gneE38 -gneE37 gneE17 gneE18 gneE19 gneE21 gneE20 -gneE27 -gneE26"/>
    <route id="r9" edges="-gneE24 gneE31 gneE32 gneE25"/>
    <route id="r10" edges="-gneE24 gneE31 gneE32 gneE33 gneE34 gneE35 -gneE42"/>
    <route id="r11" edges="-gneE25 gneE33 gneE34 gneE35 -gneE42"/>
    <route id="r12" edges="-gneE36 -gneE27 -gneE26"/>
    <route id="r13" edges="gneE49 gneE45"/>
    <route id="r14" edges="gneE46 -gneE43 gneE47 gneE40 -gneE39 -gneE38 -gneE37 gneE17 gneE18 gneE19 gneE21 gneE20 gneE36"/>
    <route id="r15" edges="gneE26 gneE27 gneE36"/>
    <route id="r16" edges="gneE42 gneE14 gneE15 gneE16 gneE17 gneE18 gneE19 gneE21 gneE20 gneE36"/>
    <route id="r17" edges="-gneE36 gneE28 gneE29 gneE30 gneE31 gneE32 gneE25"/>
    <route id="r18" edges="gneE26 gneE27 gneE28 gneE29 gneE30 gneE24"/>
    <route id="r19" edges="gneE49 -gneE43 gneE47 gneE40 -gneE39 -gneE38 -gneE37 gneE17 gneE18 gneE19 gneE21 gneE20 gneE36"/>
    <route id="r20" edges="-gneE36 gneE28 gneE29 gneE30 gneE31 gneE32 gneE33 gneE34 gneE35 -gneE42"/>
    <route id="r21" edges="gneE26 gneE27 gneE28 gneE29 gneE30 gneE31 gneE32 gneE37 gneE38 gneE39 gneE23 gneE41 gneE43 gneE45"/>
    <route id="r22" edges="gneE49 -gneE43 gneE47 gneE40 -gneE39 -gneE38 -gneE37 gneE33 gneE34 gneE35 -gneE42"/>
    <route id="r23" edges="gneE42 gneE14 gneE15 gneE16 gneE25"/>
    <route id="r24" edges="gneE46 gneE44"/>
    <route id="r25" edges="-gneE24 gneE31 gneE32 gneE37 gneE38 gneE39 gneE23 gneE41 gneE43 gneE45"/>
    <route id="r26" edges="gneE26 gneE27 gneE28 gneE29 gneE30 gneE31 gneE32 gneE33 gneE34 gneE35 -gneE42"/>
    <route id="r27" edges="-gneE36 gneE28 gneE29 gneE30 gneE24"/>
    <route id="r28" edges="-gneE25 gneE17 gneE18 gneE19 gneE21 gneE20 gneE36"/>
    <route id="r29" edges="-gneE25 gneE37 gneE38 gneE39 gneE23 gneE41 gneE43 gneE44"/>
    <route id="r30" edges="gneE42 gneE14 gneE15 gneE16 gneE17 gneE18 gneE19 gneE21 gneE20 -gneE27 -gneE26"/>
    <route id="r31" edges="-gneE36 gneE28 gneE29 gneE30 gneE31 gneE32 gneE37 gneE38 gneE39 gneE23 gneE41 gneE43 gneE45"/>
    <route id="r32" edges="-gneE25 gneE17 gneE18 gneE19 gneE21 gneE20 -gneE27 -gneE26"/>

<vehicle id="0" route="r16" depart="70"/>
<vehicle id="1" route="r30" depart="141"/>
<vehicle id="2" route="r20" depart="210"/>
<vehicle id="3" route="r30" depart="212"/>
<vehicle id="4" route="r30" depart="283"/>
<vehicle id="5" route="r30" depart="370"/>
<vehicle id="6" route="r18" depart="405"/>
<vehicle id="7" route="r30" depart="441"/>
<vehicle id="8" route="r0" depart="510"/>
<vehicle id="9" route="r9" depart="510"/>
<vehicle id="10" route="r10" depart="510"/>
<vehicle id="11" route="r27" depart="511"/>
<vehicle id="12" route="r30" depart="512"/>
<vehicle id="13" route="r30" depart="583"/>
<vehicle id="14" route="r26" depart="705"/>
<vehicle id="15" route="r30" depart="705"/>
<vehicle id="16" route="r20" depart="811"/>
<vehicle id="17" route="r16" depart="811"/>
<vehicle id="18" route="r20" depart="1110"/>
<vehicle id="19" route="r0" depart="1110"/>
<vehicle id="20" route="r30" depart="1110"/>
<vehicle id="21" route="r23" depart="1110"/>
<vehicle id="22" route="r32" depart="1110"/>
<vehicle id="23" route="r30" depart="1270"/>
<vehicle id="24" route="r30" depart="1341"/>
<vehicle id="25" route="r26" depart="1410"/>
<vehicle id="26" route="r30" depart="1412"/>
<vehicle id="27" route="r16" depart="1483"/>
<vehicle id="28" route="r20" depart="1605"/>
<vehicle id="29" route="r30" depart="1710"/>
<vehicle id="30" route="r1" depart="1710"/>
<vehicle id="31" route="r20" depart="1711"/>
<vehicle id="32" route="r30" depart="1842"/>
<vehicle id="33" route="r16" depart="1885"/>
<vehicle id="34" route="r16" depart="1928"/>
<vehicle id="35" route="r16" depart="1971"/>
<vehicle id="36" route="r16" depart="2014"/>
<vehicle id="37" route="r30" depart="2057"/>
<vehicle id="38" route="r18" depart="2310"/>
<vehicle id="39" route="r26" depart="2505"/>
<vehicle id="40" route="r11" depart="2610"/>
<vehicle id="41" route="r26" depart="2611"/>
<vehicle id="42" route="r20" depart="2770"/>
<vehicle id="43" route="r20" depart="2841"/>
<vehicle id="44" route="r30" depart="2910"/>
<vehicle id="45" route="r20" depart="2912"/>
<vehicle id="46" route="r20" depart="2983"/>
<vehicle id="47" route="r16" depart="3052"/>
<vehicle id="48" route="r20" depart="3070"/>
<vehicle id="49" route="r16" depart="3105"/>
<vehicle id="50" route="r26" depart="3141"/>
<vehicle id="51" route="r30" depart="3158"/>
<vehicle id="52" route="r16" depart="3211"/>
<vehicle id="53" route="r20" depart="3212"/>
<vehicle id="54" route="r16" depart="3264"/>
<vehicle id="55" route="r26" depart="3283"/>
<vehicle id="56" route="r20" depart="3370"/>
<vehicle id="57" route="r16" depart="3405"/>
<vehicle id="58" route="r20" depart="3441"/>
<vehicle id="59" route="r16" depart="3511"/>
<vehicle id="60" route="r20" depart="3512"/>
<vehicle id="61" route="r26" depart="3583"/>
<vehicle id="62" route="r20" depart="3810"/>
<vehicle id="63" route="r16" depart="3810"/>
<vehicle id="64" route="r16" depart="4005"/>
<vehicle id="65" route="r26" depart="4110"/>
<vehicle id="66" route="r16" depart="4111"/>
<vehicle id="67" route="r20" depart="4410"/>
<vehicle id="68" route="r30" depart="4410"/>
<vehicle id="69" route="r20" depart="4542"/>
<vehicle id="70" route="r26" depart="4585"/>
<vehicle id="71" route="r30" depart="4605"/>
<vehicle id="72" route="r26" depart="4628"/>
<vehicle id="73" route="r26" depart="4671"/>
<vehicle id="74" route="r27" depart="4710"/>
<vehicle id="75" route="r23" depart="4710"/>
<vehicle id="76" route="r16" depart="4711"/>
<vehicle id="77" route="r26" depart="4714"/>
<vehicle id="78" route="r20" depart="4757"/>
<vehicle id="79" route="r18" depart="5010"/>
<vehicle id="80" route="r0" depart="5010"/>
<vehicle id="81" route="r10" depart="5010"/>
<vehicle id="82" route="r16" depart="5010"/>
<vehicle id="83" route="r30" depart="5205"/>
<vehicle id="84" route="r20" depart="5310"/>
<vehicle id="85" route="r16" depart="5311"/>
<vehicle id="86" route="r20" depart="5610"/>
<vehicle id="87" route="r30" depart="5610"/>
<vehicle id="88" route="r31" depart="5910"/>
<vehicle id="89" route="r31" depart="6210"/>
<vehicle id="90" route="r9" depart="6210"/>
<vehicle id="91" route="r30" depart="6210"/>
<vehicle id="92" route="r16" depart="6405"/>
<vehicle id="93" route="r18" depart="6510"/>
<vehicle id="94" route="r16" depart="6511"/>
<vehicle id="95" route="r10" depart="6810"/>
<vehicle id="96" route="r5" depart="6810"/>
<vehicle id="97" route="r16" depart="7005"/>
<vehicle id="98" route="r26" depart="7110"/>
<vehicle id="99" route="r30" depart="7111"/>
<vehicle id="100" route="r20" depart="7410"/>
<vehicle id="101" route="r16" depart="7410"/>
<vehicle id="102" route="r30" depart="7552"/>
<vehicle id="103" route="r16" depart="7605"/>
<vehicle id="104" route="r16" depart="7658"/>
<vehicle id="105" route="r2" depart="7710"/>
<vehicle id="106" route="r16" depart="7711"/>
<vehicle id="107" route="r16" depart="7764"/>
<vehicle id="108" route="r27" depart="7905"/>
<vehicle id="109" route="r10" depart="7905"/>
<vehicle id="110" route="r25" depart="8010"/>
<vehicle id="111" route="r30" depart="8010"/>
<vehicle id="112" route="r18" depart="8011"/>
<vehicle id="113" route="r10" depart="8011"/>
<vehicle id="114" route="r26" depart="8205"/>
<vehicle id="115" route="r30" depart="8310"/>
<vehicle id="116" route="r26" depart="8311"/>
<vehicle id="117" route="r1" depart="8610"/>
<vehicle id="118" route="r20" depart="8910"/>
<vehicle id="119" route="r30" depart="8910"/>
<vehicle id="120" route="r16" depart="9070"/>
<vehicle id="121" route="r30" depart="9141"/>
<vehicle id="122" route="r20" depart="9210"/>
<vehicle id="123" route="r30" depart="9212"/>
<vehicle id="124" route="r16" depart="9283"/>
<vehicle id="125" route="r16" depart="9510"/>
<vehicle id="126" route="r16" depart="9705"/>
<vehicle id="127" route="r31" depart="9810"/>
<vehicle id="128" route="r9" depart="9810"/>
<vehicle id="129" route="r30" depart="9811"/>
<vehicle id="130" route="r26" depart="10005"/>
<vehicle id="131" route="r20" depart="10111"/>
<vehicle id="132" route="r18" depart="10270"/>
<vehicle id="133" route="r10" depart="10305"/>
<vehicle id="134" route="r16" depart="10305"/>
<vehicle id="135" route="r27" depart="10341"/>
<vehicle id="136" route="r0" depart="10410"/>
<vehicle id="137" route="r9" depart="10410"/>
<vehicle id="138" route="r10" depart="10411"/>
<vehicle id="139" route="r16" depart="10411"/>
<vehicle id="140" route="r27" depart="10412"/>
<vehicle id="141" route="r18" depart="10483"/>
<vehicle id="142" route="r30" depart="10605"/>
<vehicle id="143" route="r27" depart="10710"/>
<vehicle id="144" route="r25" depart="10710"/>
<vehicle id="145" route="r10" depart="10710"/>
<vehicle id="146" route="r16" depart="10711"/>
<vehicle id="147" route="r16" depart="10905"/>
<vehicle id="148" route="r20" depart="11010"/>
<vehicle id="149" route="r14" depart="11010"/>
<vehicle id="150" route="r30" depart="11011"/>
<vehicle id="151" route="r27" depart="11310"/>
<vehicle id="152" route="r25" depart="11310"/>
<vehicle id="153" route="r10" depart="11310"/>
<vehicle id="154" route="r16" depart="11310"/>
<vehicle id="155" route="r30" depart="11610"/>
<vehicle id="156" route="r19" depart="11610"/>
<vehicle id="157" route="r26" depart="11910"/>
<vehicle id="158" route="r16" depart="11910"/>
<vehicle id="159" route="r20" depart="12105"/>
<vehicle id="160" route="r16" depart="12105"/>
<vehicle id="161" route="r20" depart="12211"/>
<vehicle id="162" route="r30" depart="12211"/>
<vehicle id="163" route="r16" depart="12370"/>
<vehicle id="164" route="r16" depart="12441"/>
<vehicle id="165" route="r16" depart="12512"/>
<vehicle id="166" route="r16" depart="12583"/>
<vehicle id="167" route="r16" depart="12670"/>
<vehicle id="168" route="r20" depart="12705"/>
<vehicle id="169" route="r30" depart="12741"/>
<vehicle id="170" route="r26" depart="12811"/>
<vehicle id="171" route="r16" depart="12812"/>
<vehicle id="172" route="r16" depart="12883"/>
<vehicle id="173" route="r20" depart="13005"/>
<vehicle id="174" route="r20" depart="13111"/>
<vehicle id="175" route="r27" depart="13305"/>
<vehicle id="176" route="r10" depart="13410"/>
<vehicle id="177" route="r30" depart="13410"/>
<vehicle id="178" route="r18" depart="13411"/>
<vehicle id="179" route="r20" depart="13552"/>
<vehicle id="180" route="r20" depart="13605"/>
<vehicle id="181" route="r26" depart="13658"/>
<vehicle id="182" route="r16" depart="13710"/>
<vehicle id="183" route="r22" depart="13710"/>
<vehicle id="184" route="r11" depart="13710"/>
<vehicle id="185" route="r20" depart="13711"/>
<vehicle id="186" route="r26" depart="13764"/>
<vehicle id="187" route="r20" depart="13870"/>
<vehicle id="188" route="r30" depart="13870"/>
<vehicle id="189" route="r20" depart="13941"/>
<vehicle id="190" route="r30" depart="13941"/>
<vehicle id="191" route="r26" depart="14012"/>
<vehicle id="192" route="r30" depart="14012"/>
<vehicle id="193" route="r26" depart="14083"/>
<vehicle id="194" route="r16" depart="14083"/>
<vehicle id="195" route="r30" depart="14170"/>
<vehicle id="196" route="r30" depart="14241"/>
<vehicle id="197" route="r26" depart="14310"/>
<vehicle id="198" route="r30" depart="14312"/>
<vehicle id="199" route="r30" depart="14383"/>
<vehicle id="200" route="r30" depart="14470"/>
<vehicle id="201" route="r27" depart="14505"/>
<vehicle id="202" route="r30" depart="14541"/>
<vehicle id="203" route="r0" depart="14610"/>
<vehicle id="204" route="r10" depart="14610"/>
<vehicle id="205" route="r1" depart="14610"/>
<vehicle id="206" route="r18" depart="14611"/>
<vehicle id="207" route="r30" depart="14612"/>
<vehicle id="208" route="r16" depart="14683"/>
<vehicle id="209" route="r16" depart="14752"/>
<vehicle id="210" route="r20" depart="14770"/>
<vehicle id="211" route="r16" depart="14805"/>
<vehicle id="212" route="r26" depart="14841"/>
<vehicle id="213" route="r16" depart="14858"/>
<vehicle id="214" route="r30" depart="14911"/>
<vehicle id="215" route="r26" depart="14912"/>
<vehicle id="216" route="r16" depart="14964"/>
<vehicle id="217" route="r20" depart="14983"/>
<vehicle id="218" route="r20" depart="15105"/>
<vehicle id="219" route="r26" depart="15211"/>
<vehicle id="220" route="r20" depart="15352"/>
<vehicle id="221" route="r30" depart="15370"/>
<vehicle id="222" route="r26" depart="15405"/>
<vehicle id="223" route="r16" depart="15441"/>
<vehicle id="224" route="r20" depart="15458"/>
<vehicle id="225" route="r26" depart="15511"/>
<vehicle id="226" route="r30" depart="15512"/>
<vehicle id="227" route="r26" depart="15564"/>
<vehicle id="228" route="r30" depart="15583"/>
<vehicle id="229" route="r26" depart="15642"/>
<vehicle id="230" route="r26" depart="15685"/>
<vehicle id="231" route="r20" depart="15728"/>
<vehicle id="232" route="r20" depart="15771"/>
<vehicle id="233" route="r20" depart="15814"/>
<vehicle id="234" route="r20" depart="15857"/>
<vehicle id="235" route="r20" depart="16110"/>
<vehicle id="236" route="r25" depart="16110"/>
<vehicle id="237" route="r23" depart="16110"/>
<vehicle id="238" route="r20" depart="16252"/>
<vehicle id="239" route="r20" depart="16305"/>
<vehicle id="240" route="r20" depart="16358"/>
<vehicle id="241" route="r1" depart="16410"/>
<vehicle id="242" route="r20" depart="16411"/>
<vehicle id="243" route="r20" depart="16464"/>
<vehicle id="244" route="r27" depart="16542"/>
<vehicle id="245" route="r10" depart="16552"/>
<vehicle id="246" route="r27" depart="16585"/>
<vehicle id="247" route="r10" depart="16605"/>
<vehicle id="248" route="r16" depart="16605"/>
<vehicle id="249" route="r27" depart="16628"/>
<vehicle id="250" route="r10" depart="16658"/>
<vehicle id="251" route="r27" depart="16671"/>
<vehicle id="252" route="r25" depart="16710"/>
<vehicle id="253" route="r10" depart="16711"/>
<vehicle id="254" route="r16" depart="16711"/>
<vehicle id="255" route="r27" depart="16714"/>
<vehicle id="256" route="r18" depart="16757"/>
<vehicle id="257" route="r10" depart="16764"/>
<vehicle id="258" route="r26" depart="16842"/>
<vehicle id="259" route="r26" depart="16885"/>
<vehicle id="260" route="r20" depart="16928"/>
<vehicle id="261" route="r26" depart="16971"/>
<vehicle id="262" route="r22" depart="17010"/>
<vehicle id="263" route="r28" depart="17010"/>
<vehicle id="264" route="r20" depart="17014"/>
<vehicle id="265" route="r20" depart="17057"/>
<vehicle id="266" route="r26" depart="17130"/>
<vehicle id="267" route="r26" depart="17161"/>
<vehicle id="268" route="r16" depart="17170"/>
<vehicle id="269" route="r20" depart="17192"/>
<vehicle id="270" route="r26" depart="17223"/>
<vehicle id="271" route="r16" depart="17241"/>
<vehicle id="272" route="r20" depart="17254"/>
<vehicle id="273" route="r20" depart="17285"/>
<vehicle id="274" route="r16" depart="17312"/>
<vehicle id="275" route="r26" depart="17316"/>
<vehicle id="276" route="r26" depart="17347"/>
<vehicle id="277" route="r20" depart="17378"/>
<vehicle id="278" route="r30" depart="17383"/>
<vehicle id="279" route="r20" depart="17423"/>
<vehicle id="280" route="r20" depart="17447"/>
<vehicle id="281" route="r20" depart="17471"/>
<vehicle id="282" route="r26" depart="17495"/>
<vehicle id="283" route="r30" depart="17505"/>
<vehicle id="284" route="r20" depart="17519"/>
<vehicle id="285" route="r26" depart="17543"/>
<vehicle id="286" route="r20" depart="17567"/>
<vehicle id="287" route="r26" depart="17591"/>
<vehicle id="288" route="r23" depart="17610"/>
<vehicle id="289" route="r16" depart="17611"/>
<vehicle id="290" route="r26" depart="17615"/>
<vehicle id="291" route="r26" depart="17639"/>
<vehicle id="292" route="r20" depart="17663"/>
<vehicle id="293" route="r26" depart="17687"/>
<vehicle id="294" route="r27" depart="17721"/>
<vehicle id="295" route="r10" depart="17723"/>
<vehicle id="296" route="r30" depart="17730"/>
<vehicle id="297" route="r18" depart="17743"/>
<vehicle id="298" route="r10" depart="17747"/>
<vehicle id="299" route="r16" depart="17761"/>
<vehicle id="300" route="r18" depart="17765"/>
<vehicle id="301" route="r10" depart="17771"/>
<vehicle id="302" route="r18" depart="17787"/>
<vehicle id="303" route="r16" depart="17792"/>
<vehicle id="304" route="r10" depart="17795"/>
<vehicle id="305" route="r18" depart="17809"/>
<vehicle id="306" route="r10" depart="17819"/>
<vehicle id="307" route="r30" depart="17823"/>
<vehicle id="308" route="r27" depart="17831"/>
<vehicle id="309" route="r10" depart="17843"/>
<vehicle id="310" route="r27" depart="17853"/>
<vehicle id="311" route="r30" depart="17854"/>
<vehicle id="312" route="r10" depart="17867"/>
<vehicle id="313" route="r27" depart="17875"/>
<vehicle id="314" route="r30" depart="17885"/>
<vehicle id="315" route="r10" depart="17891"/>
<vehicle id="316" route="r27" depart="17897"/>
<vehicle id="317" route="r6" depart="17910"/>
<vehicle id="318" route="r3" depart="17910"/>
<vehicle id="319" route="r10" depart="17915"/>
<vehicle id="320" route="r16" depart="17916"/>
<vehicle id="321" route="r27" depart="17919"/>
<vehicle id="322" route="r10" depart="17939"/>
<vehicle id="323" route="r18" depart="17941"/>
<vehicle id="324" route="r30" depart="17947"/>
<vehicle id="325" route="r27" depart="17963"/>
<vehicle id="326" route="r10" depart="17963"/>
<vehicle id="327" route="r16" depart="17978"/>
<vehicle id="328" route="r27" depart="17985"/>
<vehicle id="329" route="r10" depart="17987"/>
<vehicle id="330" route="r18" depart="18052"/>
<vehicle id="331" route="r10" depart="18070"/>
<vehicle id="332" route="r16" depart="18070"/>
<vehicle id="333" route="r18" depart="18105"/>
<vehicle id="334" route="r10" depart="18141"/>
<vehicle id="335" route="r30" depart="18141"/>
<vehicle id="336" route="r27" depart="18158"/>
<vehicle id="337" route="r0" depart="18210"/>
<vehicle id="338" route="r9" depart="18210"/>
<vehicle id="339" route="r27" depart="18211"/>
<vehicle id="340" route="r10" depart="18212"/>
<vehicle id="341" route="r16" depart="18212"/>
<vehicle id="342" route="r27" depart="18264"/>
<vehicle id="343" route="r10" depart="18283"/>
<vehicle id="344" route="r30" depart="18283"/>
<vehicle id="345" route="r16" depart="18319"/>
<vehicle id="346" route="r30" depart="18339"/>
<vehicle id="347" route="r30" depart="18359"/>
<vehicle id="348" route="r26" depart="18370"/>
<vehicle id="349" route="r16" depart="18379"/>
<vehicle id="350" route="r30" depart="18399"/>
<vehicle id="351" route="r17" depart="18405"/>
<vehicle id="352" route="r21" depart="18405"/>
<vehicle id="353" route="r1" depart="18405"/>
<vehicle id="354" route="r30" depart="18419"/>
<vehicle id="355" route="r16" depart="18439"/>
<vehicle id="356" route="r26" depart="18441"/>
<vehicle id="357" route="r16" depart="18459"/>
<vehicle id="358" route="r16" depart="18479"/>
<vehicle id="359" route="r30" depart="18499"/>
<vehicle id="360" route="r25" depart="18510"/>
<vehicle id="361" route="r11" depart="18510"/>
<vehicle id="362" route="r17" depart="18511"/>
<vehicle id="363" route="r6" depart="18511"/>
<vehicle id="364" route="r22" depart="18511"/>
<vehicle id="365" route="r20" depart="18512"/>
<vehicle id="366" route="r30" depart="18519"/>
<vehicle id="367" route="r16" depart="18539"/>
<vehicle id="368" route="r16" depart="18559"/>
<vehicle id="369" route="r30" depart="18579"/>
<vehicle id="370" route="r20" depart="18583"/>
<vehicle id="371" route="r16" depart="18599"/>
<vehicle id="372" route="r18" depart="18623"/>
<vehicle id="373" route="r10" depart="18630"/>
<vehicle id="374" route="r30" depart="18642"/>
<vehicle id="375" route="r18" depart="18647"/>
<vehicle id="376" route="r10" depart="18661"/>
<vehicle id="377" route="r18" depart="18671"/>
<vehicle id="378" route="r16" depart="18685"/>
<vehicle id="379" route="r10" depart="18692"/>
<vehicle id="380" route="r18" depart="18695"/>
<vehicle id="381" route="r18" depart="18719"/>
<vehicle id="382" route="r10" depart="18723"/>
<vehicle id="383" route="r30" depart="18728"/>
<vehicle id="384" route="r27" depart="18743"/>
<vehicle id="385" route="r10" depart="18754"/>
<vehicle id="386" route="r27" depart="18767"/>
<vehicle id="387" route="r16" depart="18771"/>
<vehicle id="388" route="r10" depart="18785"/>
<vehicle id="389" route="r18" depart="18791"/>
<vehicle id="390" route="r2" depart="18810"/>
<vehicle id="391" route="r0" depart="18810"/>
<vehicle id="392" route="r3" depart="18810"/>
<vehicle id="393" route="r23" depart="18810"/>
<vehicle id="394" route="r11" depart="18810"/>
<vehicle id="395" route="r30" depart="18814"/>
<vehicle id="396" route="r27" depart="18815"/>
<vehicle id="397" route="r10" depart="18816"/>
<vehicle id="398" route="r18" depart="18839"/>
<vehicle id="399" route="r10" depart="18847"/>
<vehicle id="400" route="r30" depart="18857"/>
<vehicle id="401" route="r27" depart="18863"/>
<vehicle id="402" route="r10" depart="18878"/>
<vehicle id="403" route="r18" depart="18887"/>
<vehicle id="404" route="r30" depart="18919"/>
<vehicle id="405" route="r26" depart="18926"/>
<vehicle id="406" route="r16" depart="18939"/>
<vehicle id="407" route="r20" depart="18953"/>
<vehicle id="408" route="r30" depart="18959"/>
<vehicle id="409" route="r0" depart="18970"/>
<vehicle id="410" route="r30" depart="18979"/>
<vehicle id="411" route="r20" depart="18980"/>
<vehicle id="412" route="r30" depart="18999"/>
<vehicle id="413" route="r21" depart="19005"/>
<vehicle id="414" route="r20" depart="19007"/>
<vehicle id="415" route="r16" depart="19019"/>
<vehicle id="416" route="r20" depart="19034"/>
<vehicle id="417" route="r30" depart="19039"/>
<vehicle id="418" route="r25" depart="19041"/>
<vehicle id="419" route="r30" depart="19059"/>
<vehicle id="420" route="r26" depart="19061"/>
<vehicle id="421" route="r16" depart="19079"/>
<vehicle id="422" route="r26" depart="19088"/>
<vehicle id="423" route="r16" depart="19099"/>
<vehicle id="424" route="r17" depart="19110"/>
<vehicle id="425" route="r1" depart="19110"/>
<vehicle id="426" route="r11" depart="19110"/>
<vehicle id="427" route="r6" depart="19111"/>
<vehicle id="428" route="r0" depart="19112"/>
<vehicle id="429" route="r20" depart="19115"/>
<vehicle id="430" route="r16" depart="19119"/>
<vehicle id="431" route="r16" depart="19139"/>
<vehicle id="432" route="r26" depart="19142"/>
<vehicle id="433" route="r30" depart="19159"/>
<vehicle id="434" route="r20" depart="19169"/>
<vehicle id="435" route="r16" depart="19179"/>
<vehicle id="436" route="r25" depart="19183"/>
<vehicle id="437" route="r20" depart="19196"/>
<vehicle id="438" route="r30" depart="19199"/>
<vehicle id="439" route="r26" depart="19221"/>
<vehicle id="440" route="r16" depart="19235"/>
<vehicle id="441" route="r20" depart="19243"/>
<vehicle id="442" route="r20" depart="19265"/>
<vehicle id="443" route="r30" depart="19271"/>
<vehicle id="444" route="r26" depart="19287"/>
<vehicle id="445" route="r16" depart="19307"/>
<vehicle id="446" route="r26" depart="19309"/>
<vehicle id="447" route="r26" depart="19331"/>
<vehicle id="448" route="r30" depart="19343"/>
<vehicle id="449" route="r26" depart="19353"/>
<vehicle id="450" route="r26" depart="19375"/>
<vehicle id="451" route="r16" depart="19379"/>
<vehicle id="452" route="r26" depart="19397"/>
<vehicle id="453" route="r5" depart="19410"/>
<vehicle id="454" route="r16" depart="19415"/>
<vehicle id="455" route="r26" depart="19419"/>
<vehicle id="456" route="r26" depart="19441"/>
<vehicle id="457" route="r30" depart="19451"/>
<vehicle id="458" route="r20" depart="19463"/>
<vehicle id="459" route="r26" depart="19485"/>
<vehicle id="460" route="r16" depart="19487"/>
<vehicle id="461" route="r27" depart="19521"/>
<vehicle id="462" route="r30" depart="19523"/>
<vehicle id="463" route="r10" depart="19530"/>
<vehicle id="464" route="r18" depart="19543"/>
<vehicle id="465" route="r30" depart="19547"/>
<vehicle id="466" route="r3" depart="19552"/>
<vehicle id="467" route="r10" depart="19561"/>
<vehicle id="468" route="r18" depart="19565"/>
<vehicle id="469" route="r30" depart="19571"/>
<vehicle id="470" route="r18" depart="19587"/>
<vehicle id="471" route="r10" depart="19592"/>
<vehicle id="472" route="r16" depart="19595"/>
<vehicle id="473" route="r3" depart="19605"/>
<vehicle id="474" route="r27" depart="19609"/>
<vehicle id="475" route="r30" depart="19619"/>
<vehicle id="476" route="r10" depart="19623"/>
<vehicle id="477" route="r27" depart="19631"/>
<vehicle id="478" route="r30" depart="19643"/>
<vehicle id="479" route="r27" depart="19653"/>
<vehicle id="480" route="r10" depart="19654"/>
<vehicle id="481" route="r3" depart="19658"/>
<vehicle id="482" route="r30" depart="19667"/>
<vehicle id="483" route="r18" depart="19675"/>
<vehicle id="484" route="r10" depart="19685"/>
<vehicle id="485" route="r30" depart="19691"/>
<vehicle id="486" route="r27" depart="19697"/>
<vehicle id="487" route="r9" depart="19710"/>
<vehicle id="488" route="r22" depart="19710"/>
<vehicle id="489" route="r3" depart="19711"/>
<vehicle id="490" route="r30" depart="19715"/>
<vehicle id="491" route="r10" depart="19716"/>
<vehicle id="492" route="r27" depart="19719"/>
<vehicle id="493" route="r30" depart="19739"/>
<vehicle id="494" route="r27" depart="19741"/>
<vehicle id="495" route="r10" depart="19747"/>
<vehicle id="496" route="r27" depart="19763"/>
<vehicle id="497" route="r30" depart="19763"/>
<vehicle id="498" route="r3" depart="19764"/>
<vehicle id="499" route="r10" depart="19778"/>
<vehicle id="500" route="r18" depart="19785"/>
<vehicle id="501" route="r30" depart="19787"/>
<vehicle id="502" route="r10" depart="19821"/>
<vehicle id="503" route="r30" depart="19821"/>
<vehicle id="504" route="r27" depart="19823"/>
<vehicle id="505" route="r10" depart="19843"/>
<vehicle id="506" route="r30" depart="19843"/>
<vehicle id="507" route="r18" depart="19847"/>
<vehicle id="508" route="r10" depart="19865"/>
<vehicle id="509" route="r16" depart="19865"/>
<vehicle id="510" route="r27" depart="19871"/>
<vehicle id="511" route="r10" depart="19887"/>
<vehicle id="512" route="r16" depart="19887"/>
<vehicle id="513" route="r18" depart="19895"/>
<vehicle id="514" route="r3" depart="19905"/>
<vehicle id="515" route="r10" depart="19909"/>
<vehicle id="516" route="r30" depart="19909"/>
<vehicle id="517" route="r18" depart="19919"/>
<vehicle id="518" route="r10" depart="19931"/>
<vehicle id="519" route="r16" depart="19931"/>
<vehicle id="520" route="r18" depart="19943"/>
<vehicle id="521" route="r10" depart="19953"/>
<vehicle id="522" route="r30" depart="19953"/>
<vehicle id="523" route="r18" depart="19967"/>
<vehicle id="524" route="r10" depart="19975"/>
<vehicle id="525" route="r16" depart="19975"/>
<vehicle id="526" route="r18" depart="19991"/>
<vehicle id="527" route="r10" depart="19997"/>
<vehicle id="528" route="r16" depart="19997"/>
<vehicle id="529" route="r25" depart="20010"/>
<vehicle id="530" route="r5" depart="20010"/>
<vehicle id="531" route="r3" depart="20011"/>
<vehicle id="532" route="r18" depart="20015"/>
<vehicle id="533" route="r10" depart="20019"/>
<vehicle id="534" route="r16" depart="20019"/>
<vehicle id="535" route="r18" depart="20039"/>
<vehicle id="536" route="r10" depart="20041"/>
<vehicle id="537" route="r16" depart="20041"/>
<vehicle id="538" route="r27" depart="20063"/>
<vehicle id="539" route="r10" depart="20063"/>
<vehicle id="540" route="r16" depart="20063"/>
<vehicle id="541" route="r10" depart="20085"/>
<vehicle id="542" route="r16" depart="20085"/>
<vehicle id="543" route="r27" depart="20087"/>
<vehicle id="544" route="r27" depart="20116"/>
<vehicle id="545" route="r10" depart="20119"/>
<vehicle id="546" route="r30" depart="20119"/>
<vehicle id="547" route="r18" depart="20133"/>
<vehicle id="548" route="r10" depart="20139"/>
<vehicle id="549" route="r30" depart="20139"/>
<vehicle id="550" route="r27" depart="20150"/>
<vehicle id="551" route="r10" depart="20159"/>
<vehicle id="552" route="r16" depart="20159"/>
<vehicle id="553" route="r27" depart="20167"/>
<vehicle id="554" route="r25" depart="20170"/>
<vehicle id="555" route="r10" depart="20179"/>
<vehicle id="556" route="r30" depart="20179"/>
<vehicle id="557" route="r27" depart="20184"/>
<vehicle id="558" route="r10" depart="20199"/>
<vehicle id="559" route="r30" depart="20199"/>
<vehicle id="560" route="r27" depart="20201"/>
<vehicle id="561" route="r14" depart="20205"/>
<vehicle id="562" route="r18" depart="20218"/>
<vehicle id="563" route="r10" depart="20219"/>