<?xml version="1.0" encoding="UTF-8"?>

<!-- generated on Tue 21 Aug 2018 08:41:20 PM CEST by Netedit Version 0.32.0
<?xml version="1.0" encoding="UTF-8"?>

<configuration xmlns:xsi="http://www.w3.org/2001/XMLSchema-instance" xsi:noNamespaceSchemaLocation="http://sumo.dlr.de/xsd/netconvertConfiguration.xsd">

    <input>
        <sumo-net-file value="git/PyRL/Simulators/SUMO/network/Anl427/anl427.net.xml"/>
    </input>

    <output>
        <output-file value="git/PyRL/Simulators/SUMO/network/Anl427/anl427.net.xml"/>
    </output>

    <processing>
        <no-turnarounds value="true"/>
        <offset.disable-normalization value="true"/>
        <lefthand value="false"/>
        <junctions.corner-detail value="0"/>
        <rectangular-lane-cut value="false"/>
        <walkingareas value="false"/>
    </processing>

</configuration>
-->

<net version="0.27" xmlns:xsi="http://www.w3.org/2001/XMLSchema-instance" xsi:noNamespaceSchemaLocation="http://sumo.dlr.de/xsd/net_file.xsd">

    <location netOffset="0.00,0.00" convBoundary="0.00,0.00,228.05,361.71" origBoundary="-10000000000.00,-10000000000.00,10000000000.00,10000000000.00" projParameter="!"/>

    <edge id=":gneJ1_0" function="internal">
        <lane id=":gneJ1_0_0" index="0" allow="bicycle" speed="13.89" length="3.39" width="2.00" shape="16.04,76.62 14.63,73.38"/>
        <lane id=":gneJ1_0_1" index="1" speed="13.89" length="3.39" width="4.00" shape="18.94,75.51 18.57,74.63 18.24,74.05 17.93,73.47 17.62,72.56"/>
    </edge>
    <edge id=":gneJ1_2" function="internal">
        <lane id=":gneJ1_2_0" index="0" allow="bicycle" speed="13.89" length="2.68" width="2.00" shape="24.57,70.67 24.75,71.40 24.85,71.90 24.98,72.40 25.23,73.11"/>
        <lane id=":gneJ1_2_1" index="1" speed="13.89" length="2.68" shape="21.57,71.49 21.84,72.28 22.09,72.79 22.37,73.30 22.71,74.07"/>
    </edge>
    <edge id=":gneJ10_0" function="internal">
        <lane id=":gneJ10_0_0" index="0" allow="bicycle" speed="13.89" length="3.99" width="2.00" shape="76.23,263.78 72.31,261.60"/>
        <lane id=":gneJ10_0_1" index="1" speed="13.89" length="3.99" shape="78.86,263.13 74.94,260.98"/>
        <lane id=":gneJ10_0_2" index="2" speed="13.89" length="3.99" shape="78.86,263.13 78.15,260.21"/>
    </edge>
    <edge id=":gneJ10_3" function="internal">
        <lane id=":gneJ10_3_0" index="0" allow="bicycle" speed="13.89" length="2.96" width="2.00" shape="83.99,258.83 84.68,261.69"/>
        <lane id=":gneJ10_3_1" index="1" speed="13.89" length="2.96" shape="81.36,259.45 82.06,262.34"/>
    </edge>
    <edge id=":gneJ11_0" function="internal">
        <lane id=":gneJ11_0_0" index="0" allow="bicycle" speed="13.89" length="3.02" width="2.00" shape="80.26,279.66 79.41,276.66"/>
        <lane id=":gneJ11_0_1" index="1" speed="13.89" length="3.02" shape="82.83,278.83 82.03,276.01"/>
    </edge>
    <edge id=":gneJ11_2" function="internal">
        <lane id=":gneJ11_2_0" index="0" allow="bicycle" speed="13.89" length="3.65" width="2.00" shape="87.86,274.57 91.68,275.97"/>
        <lane id=":gneJ11_2_1" index="1" speed="13.89" length="3.65" shape="85.24,275.22 89.11,276.80"/>
        <lane id=":gneJ11_2_2" index="2" speed="13.89" length="3.65" shape="85.24,275.22 85.97,277.82"/>
    </edge>
    <edge id=":gneJ12_0" function="internal">
        <lane id=":gneJ12_0_0" index="0" allow="bicycle" speed="13.89" length="10.85" width="2.00" shape="89.63,162.02 86.56,163.19 84.10,164.59 82.23,166.22 80.97,168.09"/>
    </edge>
    <edge id=":gneJ12_1" function="internal">
        <lane id=":gneJ12_1_0" index="0" allow="bicycle" speed="13.89" length="11.49" width="2.00" shape="89.63,162.02 78.97,165.89"/>
        <lane id=":gneJ12_1_1" index="1" speed="13.89" length="11.49" shape="88.83,159.44 78.03,163.36"/>
        <lane id=":gneJ12_1_2" index="2" speed="13.89" length="11.49" shape="87.85,156.29 76.89,160.26"/>
    </edge>
    <edge id=":gneJ12_4" function="internal">
        <lane id=":gneJ12_4_0" index="0" allow="bicycle" speed="13.89" length="11.90" width="2.00" shape="74.82,154.63 86.07,150.56"/>
        <lane id=":gneJ12_4_1" index="1" speed="13.89" length="11.90" shape="75.75,157.17 86.87,153.14"/>
    </edge>
    <edge id=":gneJ14_0" function="internal">
        <lane id=":gneJ14_0_0" index="0" allow="bicycle" speed="13.89" length="9.47" width="2.00" shape="91.27,313.35 88.23,304.38"/>
    </edge>
    <edge id=":gneJ14_1" function="internal">
        <lane id=":gneJ14_1_0" index="0" speed="13.89" length="1.84" shape="93.81,312.44 93.06,311.31 92.62,311.11"/>
    </edge>
    <edge id=":gneJ14_2" function="internal">
        <lane id=":gneJ14_2_0" index="0" speed="13.89" length="9.39" shape="93.81,312.44 90.80,303.55"/>
    </edge>
    <edge id=":gneJ14_9" function="internal">
        <lane id=":gneJ14_9_0" index="0" speed="13.89" length="4.96" shape="92.62,311.11 91.81,310.73 90.06,310.71 87.81,311.23"/>
    </edge>
    <edge id=":gneJ14_3" function="internal">
        <lane id=":gneJ14_3_0" index="0" allow="bicycle" speed="13.89" length="9.96" width="2.00" shape="99.65,300.69 100.02,303.53 99.51,305.58 99.02,307.63 99.46,310.43"/>
        <lane id=":gneJ14_3_1" index="1" speed="13.89" length="9.96" shape="97.08,301.52 97.46,304.38 96.95,306.45 96.46,308.51 96.92,311.33"/>
    </edge>
    <edge id=":gneJ14_5" function="internal">
        <lane id=":gneJ14_5_0" index="0" speed="13.89" length="4.63" shape="93.94,302.53 94.29,305.37 93.67,307.03"/>
    </edge>
    <edge id=":gneJ14_10" function="internal">
        <lane id=":gneJ14_10_0" index="0" speed="13.89" length="7.44" shape="93.67,307.03 93.39,307.76 91.23,309.72 87.81,311.23"/>
    </edge>
    <edge id=":gneJ14_6" function="internal">
        <lane id=":gneJ14_6_0" index="0" allow="bicycle" speed="13.89" length="4.53" width="2.00" shape="86.80,308.09 87.78,307.57 88.35,306.78 88.50,305.71 88.23,304.38"/>
    </edge>
    <edge id=":gneJ14_7" function="internal">
        <lane id=":gneJ14_7_0" index="0" speed="13.89" length="6.78" shape="86.80,308.09 88.91,307.21 90.28,306.16 90.91,304.94 90.80,303.55"/>
    </edge>
    <edge id=":gneJ14_8" function="internal">
        <lane id=":gneJ14_8_0" index="0" speed="13.89" length="11.96" shape="86.80,308.09 90.45,307.33 93.35,307.61 95.51,308.95 96.92,311.33"/>
    </edge>
    <edge id=":gneJ15_0" function="internal">
        <lane id=":gneJ15_0_0" index="0" allow="bicycle" speed="13.89" length="0.23" width="2.00" shape="101.84,343.08 101.77,342.88"/>
        <lane id=":gneJ15_0_1" index="1" speed="13.89" length="0.23" shape="104.40,342.22 104.32,341.98"/>
    </edge>
    <edge id=":gneJ15_2" function="internal">
        <lane id=":gneJ15_2_0" index="0" allow="bicycle" speed="13.89" length="0.34" width="2.00" shape="109.97,339.97 110.09,340.31"/>
        <lane id=":gneJ15_2_1" index="1" speed="13.89" length="0.34" shape="107.43,340.87 107.53,341.17"/>
    </edge>
    <edge id=":gneJ18_0" function="internal">
        <lane id=":gneJ18_0_0" index="0" allow="bicycle" speed="13.89" length="0.83" width="2.00" shape="108.96,156.04 108.89,156.04 108.85,156.05 108.81,156.06 108.75,156.08"/>
        <lane id=":gneJ18_0_1" index="1" speed="13.89" length="0.83" shape="108.72,153.35 108.48,153.37 108.33,153.39 108.17,153.43 107.94,153.50"/>
        <lane id=":gneJ18_0_2" index="2" speed="13.89" length="0.83" shape="108.43,150.06 107.99,150.10 107.68,150.15 107.39,150.22 106.97,150.35"/>
    </edge>
    <edge id=":gneJ18_3" function="internal">
        <lane id=":gneJ18_3_0" index="0" allow="bicycle" speed="13.89" length="2.49" width="2.00" shape="105.18,144.62 105.97,144.38 106.52,144.24 107.08,144.16 107.90,144.09"/>
        <lane id=":gneJ18_3_1" index="1" speed="13.89" length="2.49" shape="105.99,147.20 106.61,147.01 107.04,146.90 107.49,146.84 108.14,146.77"/>
    </edge>
    <edge id=":gneJ2_0" function="internal">
        <lane id=":gneJ2_0_0" index="0" allow="bicycle" speed="13.89" length="3.19" width="2.00" shape="21.56,93.33 20.63,90.27"/>
        <lane id=":gneJ2_0_1" index="1" speed="13.89" length="3.19" width="4.00" shape="24.50,92.32 23.57,89.28"/>
    </edge>
    <edge id=":gneJ2_2" function="internal">
        <lane id=":gneJ2_2_0" index="0" allow="bicycle" speed="13.89" length="3.72" width="2.00" shape="30.53,86.94 33.76,89.13"/>
        <lane id=":gneJ2_2_1" index="1" speed="13.89" length="3.72" shape="27.97,87.80 31.21,90.01"/>
        <lane id=":gneJ2_2_2" index="2" speed="13.89" length="3.72" shape="27.97,87.80 28.16,88.74 28.05,89.43 27.93,90.13 28.09,91.08"/>
    </edge>
    <edge id=":gneJ20_0" function="internal">
        <lane id=":gneJ20_0_0" index="0" allow="bicycle" speed="13.89" length="0.46" width="2.00" shape="140.26,153.28 140.23,153.28 140.21,153.28 140.18,153.28 140.15,153.28"/>
        <lane id=":gneJ20_0_1" index="1" speed="13.89" length="0.46" shape="140.34,150.58 140.21,150.58 140.13,150.58 140.04,150.58 139.91,150.60"/>
        <lane id=":gneJ20_0_2" index="2" speed="13.89" length="0.46" shape="140.44,147.28 140.20,147.28 140.03,147.28 139.86,147.29 139.62,147.31"/>
    </edge>
    <edge id=":gneJ20_3" function="internal">
        <lane id=":gneJ20_3_0" index="0" allow="bicycle" speed="13.89" length="1.36" width="2.00" shape="139.09,141.33 139.54,141.29 139.85,141.28 140.16,141.27 140.61,141.29"/>
        <lane id=":gneJ20_3_1" index="1" speed="13.89" length="1.36" shape="139.33,144.02 139.69,143.99 139.93,143.98 140.18,143.98 140.53,143.99"/>
    </edge>
    <edge id=":gneJ21_0" function="internal">
        <lane id=":gneJ21_0_0" index="0" allow="bicycle" speed="13.89" length="2.37" width="2.00" shape="167.05,154.07 166.47,153.99 166.07,153.98 165.66,154.00 165.07,154.00"/>
        <lane id=":gneJ21_0_1" index="1" speed="13.89" length="2.37" shape="167.48,151.50 166.79,151.40 166.32,151.34 165.84,151.32 165.15,151.30"/>
        <lane id=":gneJ21_0_2" index="2" speed="13.89" length="2.37" shape="167.99,148.45 167.18,148.29 166.62,148.15 166.07,148.06 165.24,148.00"/>
    </edge>
    <edge id=":gneJ21_3" function="internal">
        <lane id=":gneJ21_3_0" index="0" allow="bicycle" speed="13.89" length="3.42" width="2.00" shape="165.42,142.01 166.48,142.08 167.20,142.22 167.91,142.41 168.96,142.63"/>
        <lane id=":gneJ21_3_1" index="1" speed="13.89" length="3.42" shape="165.34,144.71 166.29,144.78 166.94,144.92 167.58,145.09 168.52,145.29"/>
    </edge>
    <edge id=":gneJ24_0" function="internal">
        <lane id=":gneJ24_0_0" index="0" allow="bicycle" speed="13.89" length="3.41" width="2.00" shape="182.32,153.51 179.22,156.10"/>
        <lane id=":gneJ24_0_1" index="1" speed="13.89" length="3.41" width="3.00" shape="182.43,150.82 179.65,153.54"/>
        <lane id=":gneJ24_0_2" index="2" speed="13.89" length="3.41" width="3.00" shape="182.43,150.82 181.75,150.77 181.29,150.70 180.83,150.61 180.16,150.48"/>
    </edge>
    <edge id=":gneJ24_3" function="internal">
        <lane id=":gneJ24_3_0" index="0" allow="bicycle" speed="13.89" length="1.70" width="2.00" shape="181.13,144.66 181.58,144.73 181.89,144.78 182.20,144.80 182.65,144.82"/>
        <lane id=":gneJ24_3_1" index="1" speed="13.89" length="1.70" shape="180.69,147.32 181.24,147.41 181.61,147.47 181.99,147.49 182.55,147.52"/>
    </edge>
    <edge id=":gneJ28_0" function="internal">
        <lane id=":gneJ28_0_0" index="0" allow="bicycle" speed="13.89" length="9.68" width="2.00" shape="206.55,154.32 196.84,154.06"/>
        <lane id=":gneJ28_0_1" index="1" speed="13.89" length="9.68" shape="206.59,151.62 196.95,151.36"/>
    </edge>
    <edge id=":gneJ28_2" function="internal">
        <lane id=":gneJ28_2_0" index="0" speed="13.89" length="4.85" shape="206.59,151.62 203.73,151.03 202.25,149.80"/>
    </edge>
    <edge id=":gneJ28_10" function="internal">
        <lane id=":gneJ28_10_0" index="0" speed="13.89" length="7.39" shape="202.25,149.80 201.74,149.38 200.62,146.66 200.38,142.88"/>
    </edge>
    <edge id=":gneJ28_3" function="internal">
        <lane id=":gneJ28_3_0" index="0" allow="bicycle" speed="13.89" length="4.55" width="2.00" shape="203.67,143.03 203.82,144.14 204.37,144.95 205.33,145.44 206.69,145.62"/>
    </edge>
    <edge id=":gneJ28_4" function="internal">
        <lane id=":gneJ28_4_0" index="0" speed="13.89" length="6.84" shape="203.67,143.03 203.77,145.32 204.30,146.97 205.26,147.97 206.64,148.32"/>
    </edge>
    <edge id=":gneJ28_5" function="internal">
        <lane id=":gneJ28_5_0" index="0" speed="13.89" length="12.12" shape="203.67,143.03 203.11,146.76 201.80,149.40 199.75,150.93 196.95,151.36"/>
    </edge>
    <edge id=":gneJ28_6" function="internal">
        <lane id=":gneJ28_6_0" index="0" speed="13.89" length="4.61" shape="197.17,145.37 198.53,145.25 199.52,144.80 200.13,144.01 200.38,142.88"/>
    </edge>
    <edge id=":gneJ28_7" function="internal">
        <lane id=":gneJ28_7_0" index="0" allow="bicycle" speed="13.89" length="9.52" width="2.00" shape="197.17,145.37 206.69,145.62"/>
    </edge>
    <edge id=":gneJ28_8" function="internal">
        <lane id=":gneJ28_8_0" index="0" speed="13.89" length="1.93" shape="197.07,148.06 198.43,147.78 198.82,147.41"/>
    </edge>
    <edge id=":gneJ28_9" function="internal">
        <lane id=":gneJ28_9_0" index="0" speed="13.89" length="9.58" shape="197.07,148.06 206.64,148.32"/>
    </edge>
    <edge id=":gneJ28_11" function="internal">
        <lane id=":gneJ28_11_0" index="0" speed="13.89" length="4.93" shape="198.82,147.41 199.43,146.83 200.08,145.19 200.38,142.88"/>
    </edge>
    <edge id=":gneJ3_0" function="internal">
        <lane id=":gneJ3_0_0" index="0" allow="bicycle" speed="13.89" length="4.01" width="2.00" shape="31.63,128.51 30.22,124.61"/>
        <lane id=":gneJ3_0_1" index="1" speed="13.89" length="4.01" width="4.00" shape="34.31,127.52 33.21,123.79"/>
    </edge>
    <edge id=":gneJ3_2" function="internal">
        <lane id=":gneJ3_2_0" index="0" allow="bicycle" speed="13.89" length="4.21" width="2.00" shape="44.62,120.63 48.64,122.20"/>
        <lane id=":gneJ3_2_1" index="1" speed="13.89" length="4.21" shape="42.02,121.35 46.11,123.14"/>
        <lane id=":gneJ3_2_2" index="2" speed="13.89" length="4.21" shape="38.83,122.23 43.01,124.29"/>
        <lane id=":gneJ3_2_3" index="3" speed="13.89" length="4.21" shape="38.83,122.23 39.92,125.43"/>
    </edge>
    <edge id=":gneJ6_0" function="internal">
        <lane id=":gneJ6_0_0" index="0" speed="13.89" length="12.48" shape="50.59,183.53 48.92,178.67 47.33,175.39 45.82,173.71 44.39,173.62"/>
    </edge>
    <edge id=":gneJ6_1" function="internal">
        <lane id=":gneJ6_1_0" index="0" allow="bicycle" speed="13.89" length="26.83" width="2.00" shape="50.59,183.53 41.27,158.37"/>
    </edge>
    <edge id=":gneJ6_2" function="internal">
        <lane id=":gneJ6_2_0" index="0" allow="bicycle" speed="13.89" length="21.10" width="2.00" shape="50.59,183.53 49.44,175.22 51.41,168.26 55.09,164.21"/>
    </edge>
    <edge id=":gneJ6_3" function="internal">
        <lane id=":gneJ6_3_0" index="0" speed="13.89" length="8.29" shape="53.18,182.76 51.29,177.77 49.67,175.30"/>
    </edge>
    <edge id=":gneJ6_4" function="internal">
        <lane id=":gneJ6_4_0" index="0" speed="13.89" length="26.88" width="3.50" shape="53.18,182.76 43.99,157.50"/>
    </edge>
    <edge id=":gneJ6_5" function="internal">
        <lane id=":gneJ6_5_0" index="0" speed="13.89" length="11.02" shape="56.34,181.81 55.14,174.60 55.86,170.96"/>
    </edge>
    <edge id=":gneJ6_19" function="internal">
        <lane id=":gneJ6_19_0" index="0" speed="13.89" length="11.38" width="2.00" shape="55.09,164.21 56.51,162.64 64.72,158.36"/>
    </edge>
    <edge id=":gneJ6_20" function="internal">
        <lane id=":gneJ6_20_0" index="0" speed="13.89" length="6.09" shape="49.67,175.30 49.20,174.58 46.90,173.19 44.39,173.62"/>
    </edge>
    <edge id=":gneJ6_21" function="internal">
        <lane id=":gneJ6_21_0" index="0" speed="13.89" length="14.75" shape="55.86,170.96 56.30,168.71 59.80,164.14 65.66,160.89"/>
    </edge>
    <edge id=":gneJ6_6" function="internal">
        <lane id=":gneJ6_6_0" index="0" allow="bicycle" speed="13.89" length="11.44" width="2.00" shape="68.88,169.62 66.45,171.02 65.04,173.08 64.64,175.78 65.25,179.14"/>
    </edge>
    <edge id=":gneJ6_7" function="internal">
        <lane id=":gneJ6_7_0" index="0" speed="13.89" length="15.60" shape="67.94,167.08 64.52,169.02 62.50,171.81 61.88,175.44 62.66,179.92"/>
    </edge>
    <edge id=":gneJ6_8" function="internal">
        <lane id=":gneJ6_8_0" index="0" speed="13.89" length="24.41" shape="66.80,163.99 59.10,166.95 52.98,169.54 48.16,171.75 44.39,173.62"/>
    </edge>
    <edge id=":gneJ6_9" function="internal">
        <lane id=":gneJ6_9_0" index="0" speed="13.89" length="10.12" width="3.50" shape="66.80,163.99 58.43,166.14 56.96,166.06"/>
    </edge>
    <edge id=":gneJ6_22" function="internal">
        <lane id=":gneJ6_22_0" index="0" speed="13.89" length="16.93" width="3.50" shape="56.96,166.06 51.84,165.78 47.02,162.90 43.99,157.50"/>
    </edge>
    <edge id=":gneJ6_10" function="internal">
        <lane id=":gneJ6_10_0" index="0" allow="bicycle" speed="13.89" length="8.30" width="2.00" shape="59.84,152.37 61.10,155.31 62.33,157.29 63.54,158.31 64.72,158.36"/>
    </edge>
    <edge id=":gneJ6_11" function="internal">
        <lane id=":gneJ6_11_0" index="0" allow="bicycle" speed="13.89" length="27.39" width="2.00" shape="59.84,152.37 62.13,160.12 62.84,165.66 63.41,171.24 65.25,179.14"/>
    </edge>
    <edge id=":gneJ6_12" function="internal">
        <lane id=":gneJ6_12_0" index="0" speed="13.89" length="4.66" shape="57.27,153.20 59.11,157.24 59.25,157.42"/>
    </edge>
    <edge id=":gneJ6_13" function="internal">
        <lane id=":gneJ6_13_0" index="0" speed="13.89" length="27.26" shape="54.12,154.22 56.41,161.93 57.11,167.44 57.67,173.00 59.50,180.86"/>
    </edge>
    <edge id=":gneJ6_14" function="internal">
        <lane id=":gneJ6_14_0" index="0" speed="13.89" length="14.30" shape="50.98,155.24 52.33,161.13 51.68,166.16 49.98,168.84"/>
    </edge>
    <edge id=":gneJ6_23" function="internal">
        <lane id=":gneJ6_23_0" index="0" speed="13.89" length="7.94" shape="59.25,157.42 61.12,159.87 63.31,161.08 65.66,160.89"/>
    </edge>
    <edge id=":gneJ6_24" function="internal">
        <lane id=":gneJ6_24_0" index="0" speed="13.89" length="7.45" shape="49.98,168.84 49.04,170.32 44.39,173.62"/>
    </edge>
    <edge id=":gneJ6_15" function="internal">
        <lane id=":gneJ6_15_0" index="0" allow="bicycle" speed="13.89" length="12.76" width="2.00" shape="42.90,170.67 43.56,169.52 43.50,167.09 42.74,163.37 41.27,158.37"/>
    </edge>
    <edge id=":gneJ6_16" function="internal">
        <lane id=":gneJ6_16_0" index="0" speed="13.89" length="14.21" width="3.50" shape="42.90,170.67 44.69,168.98 45.47,166.22 45.23,162.39 43.99,157.50"/>
    </edge>
    <edge id=":gneJ6_17" function="internal">
        <lane id=":gneJ6_17_0" index="0" speed="13.89" length="24.78" shape="42.90,170.67 47.02,168.68 52.44,166.23 58.77,163.56 65.66,160.89"/>
    </edge>
    <edge id=":gneJ6_18" function="internal">
        <lane id=":gneJ6_18_0" index="0" speed="13.89" length="6.86" shape="42.90,170.67 48.34,169.08 49.50,169.38"/>
    </edge>
    <edge id=":gneJ6_25" function="internal">
        <lane id=":gneJ6_25_0" index="0" speed="13.89" length="16.21" shape="49.50,169.38 52.92,170.25 56.64,174.18 59.50,180.86"/>
    </edge>
    <edge id=":gneJ7_0" function="internal">
        <lane id=":gneJ7_0_0" index="0" allow="bicycle" speed="13.89" length="9.56" width="2.00" shape="56.19,202.08 53.43,192.94"/>
        <lane id=":gneJ7_0_1" index="1" speed="13.89" length="9.56" shape="58.78,201.30 56.01,192.16"/>
        <lane id=":gneJ7_0_2" index="2" speed="13.89" length="9.56" shape="61.93,200.35 59.17,191.20"/>
    </edge>
    <edge id=":gneJ7_3" function="internal">
        <lane id=":gneJ7_3_0" index="0" allow="bicycle" speed="13.89" length="10.91" width="2.00" shape="71.02,188.75 69.37,191.49 67.97,193.50 67.26,195.60 67.68,198.62"/>
    </edge>
    <edge id=":gneJ7_4" function="internal">
        <lane id=":gneJ7_4_0" index="0" allow="bicycle" speed="13.89" length="10.04" width="2.00" shape="68.08,188.52 68.43,191.46 67.88,193.57 67.33,195.68 67.68,198.62"/>
        <lane id=":gneJ7_4_1" index="1" speed="13.89" length="10.04" shape="65.49,189.30 65.84,192.24 65.29,194.35 64.75,196.46 65.09,199.40"/>
        <lane id=":gneJ7_4_2" index="2" speed="13.89" length="10.04" shape="62.33,190.25 65.09,199.40"/>
    </edge>
    <edge id=":gneJ8_0" function="internal">
        <lane id=":gneJ8_0_0" index="0" speed="13.89" length="5.68" shape="66.24,236.01 65.71,234.77 64.79,233.91 63.49,233.43 61.81,233.33"/>
    </edge>
    <edge id=":gneJ8_1" function="internal">
        <lane id=":gneJ8_1_0" index="0" allow="bicycle" speed="13.89" length="9.74" width="2.00" shape="66.24,236.01 63.60,226.64"/>
    </edge>
    <edge id=":gneJ8_2" function="internal">
        <lane id=":gneJ8_2_0" index="0" speed="13.89" length="1.67" shape="68.87,235.39 68.22,234.37 67.80,234.17"/>
    </edge>
    <edge id=":gneJ8_3" function="internal">
        <lane id=":gneJ8_3_0" index="0" speed="13.89" length="10.00" shape="68.87,235.39 66.18,225.86"/>
        <lane id=":gneJ8_3_1" index="1" speed="13.89" length="10.00" shape="72.08,234.63 69.34,224.90"/>
    </edge>
    <edge id=":gneJ8_9" function="internal">
        <lane id=":gneJ8_9_0" index="0" speed="13.89" length="6.13" shape="67.80,234.17 66.82,233.69 64.68,233.34 61.81,233.33"/>
    </edge>
    <edge id=":gneJ8_5" function="internal">
        <lane id=":gneJ8_5_0" index="0" allow="bicycle" speed="13.89" length="10.38" width="2.00" shape="75.09,223.17 77.92,233.24"/>
        <lane id=":gneJ8_5_1" index="1" speed="13.89" length="10.38" shape="72.50,223.95 75.29,233.86"/>
    </edge>
    <edge id=":gneJ8_7" function="internal">
        <lane id=":gneJ8_7_0" index="0" allow="bicycle" speed="13.89" length="4.75" width="2.00" shape="61.65,230.03 62.87,229.77 63.60,229.11 63.84,228.07 63.60,226.64"/>
    </edge>
    <edge id=":gneJ8_8" function="internal">
        <lane id=":gneJ8_8_0" index="0" speed="13.89" length="7.40" shape="61.65,230.03 64.08,229.67 65.64,228.85 66.34,227.58 66.18,225.86"/>
    </edge>

    <edge id="-gneE24" from="gneJ5" to="gneJ8" priority="1">
        <lane id="-gneE24_0" index="0" speed="13.89" length="9.81" shape="51.85,230.49 61.65,230.03"/>
    </edge>
    <edge id="-gneE25" from="gneJ4" to="gneJ6" priority="1">
        <lane id="-gneE25_0" index="0" speed="13.89" length="9.93" shape="34.04,175.16 42.90,170.67"/>
    </edge>
    <edge id="-gneE26" from="gneJ15" to="gneJ19" priority="1">
        <lane id="-gneE26_0" index="0" allow="bicycle" speed="13.89" length="21.11" width="2.00" shape="110.09,340.31 116.81,360.32"/>
        <lane id="-gneE26_1" index="1" speed="13.89" length="21.11" shape="107.53,341.17 114.25,361.18"/>
    </edge>
    <edge id="-gneE27" from="gneJ14" to="gneJ15" priority="1">
        <lane id="-gneE27_0" index="0" allow="bicycle" speed="13.89" length="31.35" width="2.00" shape="99.46,310.43 109.97,339.97"/>
        <lane id="-gneE27_1" index="1" speed="13.89" length="31.35" shape="96.92,311.33 107.43,340.87"/>
    </edge>
    <edge id="-gneE36" from="gneJ9" to="gneJ14" priority="1">
        <lane id="-gneE36_0" index="0" speed="13.89" length="13.65" shape="73.80,312.26 86.80,308.09"/>
    </edge>
    <edge id="-gneE37" from="gneJ12" to="gneJ6" priority="1">
        <lane id="-gneE37_0" index="0" allow="bicycle" speed="13.89" length="10.76" width="2.00" shape="78.97,165.89 68.88,169.62"/>
        <lane id="-gneE37_1" index="1" speed="13.89" length="10.76" shape="78.03,163.36 67.94,167.08"/>
        <lane id="-gneE37_2" index="2" speed="13.89" length="10.76" shape="76.89,160.26 66.80,163.99"/>
    </edge>
    <edge id="-gneE38" from="gneJ18" to="gneJ12" priority="1">
        <lane id="-gneE38_0" index="0" allow="bicycle" speed="13.89" length="20.02" width="2.00" shape="108.75,156.08 89.63,162.02"/>
        <lane id="-gneE38_1" index="1" speed="13.89" length="20.02" shape="107.94,153.50 88.83,159.44"/>
        <lane id="-gneE38_2" index="2" speed="13.89" length="20.02" shape="106.97,150.35 87.85,156.29"/>
    </edge>
    <edge id="-gneE39" from="gneJ20" to="gneJ18" priority="1">
        <lane id="-gneE39_0" index="0" allow="bicycle" speed="13.89" length="31.31" width="2.00" shape="140.15,153.28 108.96,156.04"/>
        <lane id="-gneE39_1" index="1" speed="13.89" length="31.31" shape="139.91,150.60 108.72,153.35"/>
        <lane id="-gneE39_2" index="2" speed="13.89" length="31.31" shape="139.62,147.31 108.43,150.06"/>
    </edge>
    <edge id="-gneE42" from="gneJ1" to="gneJ0" priority="1">
        <lane id="-gneE42_0" index="0" allow="bicycle" speed="13.89" length="74.64" width="2.00" shape="14.63,73.38 -4.97,1.35"/>
        <lane id="-gneE42_1" index="1" speed="13.89" length="74.64" width="4.00" shape="17.62,72.56 -1.98,0.54"/>
    </edge>
    <edge id="-gneE43" from="gneJ28" to="gneJ24" priority="1">
        <lane id="-gneE43_0" index="0" allow="bicycle" speed="13.89" length="14.53" width="2.00" shape="196.84,154.06 182.32,153.51"/>
        <lane id="-gneE43_1" index="1" speed="13.89" length="14.53" shape="196.95,151.36 182.43,150.82"/>
    </edge>
    <edge id="gneE14" from="gneJ1" to="gneJ2" priority="1" shape="18.21,66.93 26.40,88.32">
        <lane id="gneE14_0" index="0" allow="bicycle" speed="13.89" length="14.76" width="2.00" shape="25.23,73.11 30.53,86.94"/>
        <lane id="gneE14_1" index="1" speed="13.89" length="14.76" shape="22.71,74.07 27.97,87.80"/>
    </edge>
    <edge id="gneE15" from="gneJ2" to="gneJ3" priority="1" shape="26.03,90.17 37.00,121.99">
        <lane id="gneE15_0" index="0" allow="bicycle" speed="13.89" length="33.14" width="2.00" shape="33.76,89.13 44.62,120.63"/>
        <lane id="gneE15_1" index="1" speed="13.89" length="33.14" shape="31.21,90.01 42.02,121.35"/>
        <lane id="gneE15_2" index="2" speed="13.89" length="33.14" shape="28.09,91.08 38.83,122.23"/>
    </edge>
    <edge id="gneE16" from="gneJ3" to="gneJ6" priority="1" shape="38.00,125.00 53.62,167.09">
        <lane id="gneE16_0" index="0" allow="bicycle" speed="13.89" length="31.99" width="2.00" shape="48.64,122.20 59.84,152.37"/>
        <lane id="gneE16_1" index="1" speed="13.89" length="31.99" shape="46.11,123.14 57.27,153.20"/>
        <lane id="gneE16_2" index="2" speed="13.89" length="31.99" shape="43.01,124.29 54.12,154.22"/>
        <lane id="gneE16_3" index="3" speed="13.89" length="31.99" shape="39.92,125.43 50.98,155.24"/>
    </edge>
    <edge id="gneE17" from="gneJ6" to="gneJ7" priority="1">
        <lane id="gneE17_0" index="0" allow="bicycle" speed="13.89" length="9.80" width="2.00" shape="65.25,179.14 68.08,188.52"/>
        <lane id="gneE17_1" index="1" speed="13.89" length="9.80" shape="62.66,179.92 65.49,189.30"/>
        <lane id="gneE17_2" index="2" speed="13.89" length="9.80" shape="59.50,180.86 62.33,190.25"/>
    </edge>
    <edge id="gneE18" from="gneJ7" to="gneJ8" priority="1">
        <lane id="gneE18_0" index="0" allow="bicycle" speed="13.89" length="25.65" width="2.00" shape="67.68,198.62 75.09,223.17"/>
        <lane id="gneE18_1" index="1" speed="13.89" length="25.65" shape="65.09,199.40 72.50,223.95"/>
    </edge>
    <edge id="gneE19" from="gneJ8" to="gneJ10" priority="1">
        <lane id="gneE19_0" index="0" allow="bicycle" speed="13.89" length="26.30" width="2.00" shape="77.92,233.24 83.99,258.83"/>
        <lane id="gneE19_1" index="1" speed="13.89" length="26.30" shape="75.29,233.86 81.36,259.45"/>
    </edge>
    <edge id="gneE20" from="gneJ11" to="gneJ14" priority="1">
        <lane id="gneE20_0" index="0" allow="bicycle" speed="13.89" length="25.97" width="2.00" shape="91.68,275.97 99.65,300.69"/>
        <lane id="gneE20_1" index="1" speed="13.89" length="25.97" shape="89.11,276.80 97.08,301.52"/>
        <lane id="gneE20_2" index="2" speed="13.89" length="25.97" shape="85.97,277.82 93.94,302.53"/>
    </edge>
    <edge id="gneE21" from="gneJ10" to="gneJ11" priority="1">
        <lane id="gneE21_0" index="0" allow="bicycle" speed="13.89" length="13.27" width="2.00" shape="84.68,261.69 87.86,274.57"/>
        <lane id="gneE21_1" index="1" speed="13.89" length="13.27" shape="82.06,262.34 85.24,275.22"/>
    </edge>
    <edge id="gneE23" from="gneJ20" to="gneJ21" priority="1">
        <lane id="gneE23_0" index="0" allow="bicycle" speed="13.89" length="24.82" width="2.00" shape="140.61,141.29 165.42,142.01"/>
        <lane id="gneE23_1" index="1" speed="13.89" length="24.82" shape="140.53,143.99 165.34,144.71"/>
    </edge>
    <edge id="gneE24" from="gneJ8" to="gneJ5" priority="1">
        <lane id="gneE24_0" index="0" speed="13.89" length="9.81" shape="61.81,233.33 52.01,233.79"/>
    </edge>
    <edge id="gneE25" from="gneJ6" to="gneJ4" priority="1">
        <lane id="gneE25_0" index="0" speed="13.89" length="9.93" shape="44.39,173.62 35.54,178.10"/>
    </edge>
    <edge id="gneE26" from="gneJ19" to="gneJ15" priority="1">
        <lane id="gneE26_0" index="0" allow="bicycle" speed="13.89" length="21.11" width="2.00" shape="108.57,363.10 101.84,343.08"/>
        <lane id="gneE26_1" index="1" speed="13.89" length="21.11" shape="111.13,362.24 104.40,342.22"/>
    </edge>
    <edge id="gneE27" from="gneJ15" to="gneJ14" priority="1">
        <lane id="gneE27_0" index="0" allow="bicycle" speed="13.89" length="31.35" width="2.00" shape="101.77,342.88 91.27,313.35"/>
        <lane id="gneE27_1" index="1" speed="13.89" length="31.35" shape="104.32,341.98 93.81,312.44"/>
    </edge>
    <edge id="gneE28" from="gneJ14" to="gneJ11" priority="1">
        <lane id="gneE28_0" index="0" allow="bicycle" speed="13.89" length="25.97" width="2.00" shape="88.23,304.38 80.26,279.66"/>